<?xml version="1.0" encoding="UTF-8"?>

<!-- generated on Thu 21 Nov 2019 02:35:15 PM EST by Eclipse SUMO netedit Version 1.2.0
<configuration xmlns:xsi="http://www.w3.org/2001/XMLSchema-instance" xsi:noNamespaceSchemaLocation="http://sumo.dlr.de/xsd/netconvertConfiguration.xsd">

    <input>
        <sumo-net-file value="carta.net.xml"/>
    </input>

    <output>
        <output-file value="carta.net.xml"/>
    </output>

    <processing>
        <geometry.max-grade.fix value="false"/>
        <offset.disable-normalization value="true"/>
        <lefthand value="false"/>
    </processing>

    <junctions>
        <no-internal-links value="true"/>
        <no-turnarounds value="true"/>
        <junctions.corner-detail value="5"/>
        <junctions.limit-turn-speed value="5.5"/>
        <rectangular-lane-cut value="false"/>
    </junctions>

    <pedestrian>
        <walkingareas value="false"/>
    </pedestrian>

</configuration>
-->

<net version="1.1" junctionCornerDetail="5" limitTurnSpeed="5.50" xmlns:xsi="http://www.w3.org/2001/XMLSchema-instance" xsi:noNamespaceSchemaLocation="http://sumo.dlr.de/xsd/net_file.xsd">

    <location netOffset="-652129.00,-3872619.60" convBoundary="30.10,0.00,18375.03,17230.54" origBoundary="-85.333207,34.984110,-85.133365,35.138780" projParameter="+proj=utm +zone=16 +ellps=WGS84 +datum=WGS84 +units=m +no_defs"/>

    <edge id="0.4104" from="gneJ49" to="gneJ51" priority="0" spreadType="center" shape="2408.76,6999.27 2376.12,6944.16 2362.28,6912.86 2349.33,6883.24 2336.35,6855.01 2322.94,6825.10 2308.02,6790.45 2294.97,6760.00 2276.42,6717.25 2264.66,6690.70 2245.01,6645.99 2241.33,6635.20">
        <lane id="0.4104_0" index="0" speed="13.89" length="401.18" shape="2404.40,6995.06 2374.70,6944.89 2360.82,6913.50 2347.87,6883.89 2334.89,6855.67 2321.48,6825.74 2306.55,6791.08 2293.50,6760.63 2274.95,6717.89 2263.20,6691.35 2243.52,6646.57 2242.00,6642.13"/>
        <lane id="0.4104_1" index="1" speed="13.89" length="401.18" shape="2407.16,6993.43 2377.54,6943.43 2363.74,6912.22 2350.79,6882.59 2337.81,6854.35 2324.40,6824.46 2309.49,6789.82 2296.44,6759.37 2277.89,6716.61 2266.12,6690.05 2246.50,6645.41 2245.03,6641.10"/>
    </edge>
    <edge id="0.4504" from="gneJ51" to="gneJ57" priority="0" spreadType="center" shape="2241.33,6635.20 2228.49,6611.31 2213.55,6577.50 2203.19,6552.80">
        <lane id="0.4504_0" index="0" speed="13.89" length="90.87" shape="2236.10,6628.85 2227.05,6612.01 2212.08,6578.13 2203.76,6558.29"/>
        <lane id="0.4504_1" index="1" speed="13.89" length="90.87" shape="2238.92,6627.34 2229.93,6610.61 2215.02,6576.87 2206.71,6557.05"/>
    </edge>
    <edge id="0.4596" from="gneJ57" to="gneJ273" priority="0" spreadType="center" shape="2203.19,6552.80 2201.15,6548.72 2180.39,6508.69 2180.10,6484.12 2192.94,6454.90 2196.16,6427.67 2196.90,6410.15 2194.94,6395.27">
        <lane id="0.4596_0" index="0" speed="13.89" length="158.03" shape="2197.74,6545.63 2178.79,6509.09 2178.50,6483.79 2191.38,6454.47 2194.56,6427.54 2195.30,6410.22 2194.91,6407.32"/>
        <lane id="0.4596_1" index="1" speed="13.89" length="158.03" shape="2200.61,6544.20 2181.99,6508.29 2181.70,6484.45 2194.50,6455.33 2197.76,6427.80 2198.50,6410.08 2198.09,6406.90"/>
    </edge>
    <edge id="1.4017" from="gneJ276" to="gneJ262" priority="0" spreadType="center" shape="4692.18,6656.37 4712.50,6642.98 4742.84,6629.63 4764.91,6620.03 4796.63,6606.15 4825.59,6593.34 4857.28,6581.13 4889.01,6566.70 4912.00,6556.55 4939.50,6548.71 4967.08,6536.98 4988.21,6528.47 5010.24,6521.08 5035.52,6510.42 5063.55,6498.70 5084.68,6490.19 5107.68,6479.50 5131.11,6469.91 5163.74,6456.06 5199.12,6441.69 5229.93,6427.80 5263.94,6413.41 5288.78,6401.63 5308.09,6393.09 5329.70,6383.48 5359.54,6372.90 5390.76,6361.24 5412.83,6351.64 5444.51,6339.98 5467.13,6332.33">
        <lane id="1.4017_0" index="0" speed="13.89" length="840.95" shape="4698.74,6652.05 4712.50,6642.98 4742.84,6629.63 4764.91,6620.03 4796.63,6606.15 4825.59,6593.34 4857.28,6581.13 4889.01,6566.70 4912.00,6556.55 4939.50,6548.71 4967.08,6536.98 4988.21,6528.47 5010.24,6521.08 5035.52,6510.42 5063.55,6498.70 5084.68,6490.19 5107.68,6479.50 5131.11,6469.91 5163.74,6456.06 5199.12,6441.69 5229.93,6427.80 5263.94,6413.41 5288.78,6401.63 5308.09,6393.09 5329.70,6383.48 5359.54,6372.90 5390.76,6361.24 5412.83,6351.64 5444.51,6339.98 5461.86,6334.11"/>
    </edge>
    <edge id="1.4017.840" from="gneJ262" to="gneJ136" priority="0" spreadType="center" shape="5467.38,6330.75 5474.78,6333.52 5500.42,6352.04 5516.49,6385.47 5540.01,6437.05 5551.31,6469.42 5561.85,6492.90 5570.47,6522.45 5582.00,6554.27 5595.22,6594.44 5608.80,6626.85 5622.88,6657.05 5636.86,6692.80 5650.90,6725.22 5665.97,6750.44 5679.88,6790.07 5693.99,6818.05 5706.93,6847.95 5719.18,6891.71 5730.51,6921.87 5743.74,6948.72 5755.07,6978.88 5769.99,7012.97 5783.14,7044.27 5798.43,7082.81 5810.21,7114.08 5821.89,7137.58 5837.44,7174.46 5849.71,7203.52 5860.29,7224.79 5873.65,7243.88 5891.68,7256.40 5913.43,7264.54 5939.83,7268.33 5959.78,7275.33 5981.49,7285.70 5996.73,7301.49 6010.06,7321.70 6019.71,7344.05 6034.05,7372.04 6049.60,7408.92 6062.77,7439.11 6072.37,7463.68 6075.84,7467.36">
        <lane id="1.4017.840_0" index="0" speed="13.89" length="1331.43" shape="5473.94,6333.21 5474.78,6333.52 5500.42,6352.04 5516.49,6385.47 5540.01,6437.05 5551.31,6469.42 5561.85,6492.90 5570.47,6522.45 5582.00,6554.27 5595.22,6594.44 5608.80,6626.85 5622.88,6657.05 5636.86,6692.80 5650.90,6725.22 5665.97,6750.44 5679.88,6790.07 5693.99,6818.05 5706.93,6847.95 5719.18,6891.71 5730.51,6921.87 5743.74,6948.72 5755.07,6978.88 5769.99,7012.97 5783.14,7044.27 5798.43,7082.81 5810.21,7114.08 5821.89,7137.58 5837.44,7174.46 5849.71,7203.52 5860.29,7224.79 5873.65,7243.88 5891.68,7256.40 5913.43,7264.54 5939.83,7268.33 5959.78,7275.33 5981.49,7285.70 5996.73,7301.49 6010.06,7321.70 6019.71,7344.05 6034.05,7372.04 6049.60,7408.92 6062.77,7439.11 6072.32,7463.56"/>
    </edge>
    <edge id="1.6179" from="gneJ136" to="gneJ127" priority="0" spreadType="center" shape="6075.84,7467.36 6083.81,7488.29 6093.42,7512.87 6103.08,7534.12 6113.16,7558.14 6132.33,7588.55">
        <lane id="1.6179_0" index="0" speed="13.89" length="134.37" shape="6077.97,7472.94 6083.81,7488.29 6093.42,7512.87 6103.08,7534.12 6113.16,7558.14 6129.15,7583.51"/>
    </edge>
    <edge id="1.6308" from="gneJ127" to="gneJ251" priority="0" spreadType="center" shape="6130.94,7589.34 6126.69,7593.33 6138.04,7622.37 6145.86,7644.70 6159.14,7668.23 6166.96,7690.55 6176.65,7710.69 6187.18,7734.73 6197.51,7757.86">
        <lane id="1.6308_0" index="0" speed="13.89" length="184.15" shape="6127.53,7595.49 6138.04,7622.37 6145.86,7644.70 6159.14,7668.23 6166.96,7690.55 6176.65,7710.69 6187.18,7734.73 6192.74,7747.18"/>
    </edge>
    <edge id="1.6308.183" from="gneJ251" to="23" priority="0" spreadType="center" shape="6197.51,7757.86 6203.43,7770.52 6216.14,7800.14 6225.77,7823.61 6237.20,7848.21 6246.79,7873.90 6258.26,7896.29 6266.10,7917.51 6277.11,7940.44 6295.03,7985.13 6306.38,8014.73 6316.08,8033.76 6327.05,8058.92 6342.85,8094.14 6357.29,8129.34 6372.21,8163.44 6386.67,8197.53 6402.04,8231.64 6416.47,8267.39 6430.93,8301.49 6445.38,8335.58 6460.32,8368.57 6475.65,8404.89 6491.92,8439.57 6505.46,8474.20 6519.47,8507.73 6534.38,8541.83 6548.83,8576.48 6562.35,8612.22 6577.29,8644.65 6592.19,8679.31 6608.17,8704.55 6630.21,8722.13 6662.76,8738.79 6689.47,8750.35 6707.62,8756.21 6732.52,8766.63 6766.92,8781.66 6800.90,8795.01 6827.18,8804.90 6845.30,8811.87 6871.57,8822.87 6897.85,8832.76 6922.76,8842.63 6949.50,8852.53 6976.22,8863.54 7006.47,8881.26 7027.69,8919.36 7043.55,8951.81 7054.90,8980.86 7064.48,9006.54 7075.87,9033.37 7087.24,9061.31 7099.56,9087.04 7109.20,9109.40 7120.83,9135.67 7134.64,9167.54 7143.41,9187.66 7153.05,9210.02 7160.85,9233.46 7169.60,9254.69 7181.50,9278.20 7194.21,9307.82 7207.30,9341.89 7221.38,9370.98 7232.33,9396.69 7260.70,9463.12 7269.59,9482.78 7281.18,9511.00 7296.27,9547.60 7309.01,9575.56 7318.69,9595.70 7326.55,9615.81 7337.96,9640.97 7351.96,9675.06 7364.22,9704.12 7372.97,9725.35 7409.82,9786.49">
        <lane id="1.6308.183_0" index="0" speed="13.89" length="2460.83" shape="6200.63,7764.54 6203.43,7770.52 6216.14,7800.14 6225.77,7823.61 6237.20,7848.21 6246.79,7873.90 6258.26,7896.29 6266.10,7917.51 6277.11,7940.44 6295.03,7985.13 6306.38,8014.73 6316.08,8033.76 6327.05,8058.92 6342.85,8094.14 6357.29,8129.34 6372.21,8163.44 6386.67,8197.53 6402.04,8231.64 6416.47,8267.39 6430.93,8301.49 6445.38,8335.58 6460.32,8368.57 6475.65,8404.89 6491.92,8439.57 6505.46,8474.20 6519.47,8507.73 6534.38,8541.83 6548.83,8576.48 6562.35,8612.22 6577.29,8644.65 6592.19,8679.31 6608.17,8704.55 6630.21,8722.13 6662.76,8738.79 6689.47,8750.35 6707.62,8756.21 6732.52,8766.63 6766.92,8781.66 6800.90,8795.01 6827.18,8804.90 6845.30,8811.87 6871.57,8822.87 6897.85,8832.76 6922.76,8842.63 6949.50,8852.53 6976.22,8863.54 7006.47,8881.26 7027.69,8919.36 7043.55,8951.81 7054.90,8980.86 7064.48,9006.54 7075.87,9033.37 7087.24,9061.31 7099.56,9087.04 7109.20,9109.40 7120.83,9135.67 7134.64,9167.54 7143.41,9187.66 7153.05,9210.02 7160.85,9233.46 7169.60,9254.69 7181.50,9278.20 7194.21,9307.82 7207.30,9341.89 7221.38,9370.98 7232.33,9396.69 7260.70,9463.12 7269.59,9482.78 7281.18,9511.00 7296.27,9547.60 7309.01,9575.56 7318.69,9595.70 7326.55,9615.81 7337.96,9640.97 7351.96,9675.06 7364.22,9704.12 7372.97,9725.35 7405.98,9780.12"/>
    </edge>
    <edge id="11.12854" from="gneJ129" to="gneJ180" priority="0" spreadType="center" shape="8509.86,9982.33 8531.41,9983.19 8551.39,9987.98 8575.93,9992.85 8609.53,10001.77 8640.40,10009.53 8671.71,10018.40 8703.50,10026.18 8738.43,10036.78 8764.77,10042.79 8791.99,10051.04 8817.42,10057.59 8844.57,10069.17 8875.37,10081.37 8898.92,10090.66 8916.98,10100.96 8942.34,10110.84 8977.66,10125.34 9006.56,10141.38 9026.37,10156.16 9049.82,10171.00 9072.32,10188.04 9095.73,10205.10 9115.54,10219.87 9130.80,10233.46 9147.42,10248.18 9171.54,10276.34 9190.77,10297.76 9210.50,10316.98 9231.06,10340.64 9244.85,10360.30 9264.42,10387.83 9284.84,10419.26 9303.86,10452.33 9324.69,10486.54 9341.87,10520.69 9359.53,10553.18 9378.60,10584.03 9397.30,10609.32 9423.73,10635.87 9444.43,10651.77 9462.51,10660.96 9480.62,10667.94 9509.16,10678.99 9540.55,10683.43 9567.88,10685.03 9605.28,10684.59 9637.20,10684.60 9667.30,10684.58 9702.88,10684.10 9727.54,10682.32 9750.34,10682.18 9787.24,10684.50 9815.96,10685.01 9837.85,10685.40 9862.44,10686.95 9888.87,10688.53 9917.09,10691.25 9948.01,10696.24 9972.11,10700.55 10008.48,10706.75 10036.20,10712.24 10058.00,10717.06 10076.18,10720.72 10096.16,10725.51 10117.98,10729.23 10137.07,10732.90 10158.87,10737.73 10180.68,10742.55 10200.68,10746.24 10220.66,10751.04 10242.46,10755.86 10264.26,10760.69 10286.07,10765.52 10306.07,10769.20 10327.89,10772.92 10349.69,10777.75 10367.85,10782.51 10389.67,10786.23 10409.65,10791.03 10431.45,10795.86 10451.45,10799.54 10472.35,10804.35 10490.54,10806.90 10514.17,10811.76 10532.34,10815.41 10551.41,10820.19 10577.32,10825.10 10610.04,10831.23 10645.07,10836.30 10666.91,10838.91 10690.78,10842.94 10733.67,10853.97 10761.39,10859.46 10779.57,10863.12 10798.64,10867.90 10822.95,10872.77 10857.25,10880.04 10884.94,10887.20 10908.56,10892.06 10931.28,10896.90 10955.82,10901.78 10975.80,10906.58 10997.16,10910.29 11026.63,10919.70 11052.94,10927.94 11073.83,10932.75 11100.17,10938.77 11136.47,10948.85 11170.06,10957.78 11202.26,10967.23 11238.55,10977.87 11272.09,10989.57 11298.85,10997.82 11322.83,11008.23 11354.09,11019.89 11383.51,11032.07 11414.76,11043.73 11447.32,11059.29 11476.23,11074.24 11495.68,11083.46 11525.97,11097.88 11558.50,11114.55 11583.81,11127.21 11607.28,11140.95 11632.59,11153.61 11657.88,11167.38 11683.16,11181.15 11700.33,11190.34 11719.31,11199.56 11743.75,11209.98 11766.36,11220.38 11792.64,11229.73 11818.03,11237.95 11845.22,11247.32 11868.81,11254.40 11891.48,11261.47 11923.74,11268.15 11954.64,11274.26 11981.90,11279.74 12008.72,11284.67 12028.75,11286.14 12054.45,11289.93 12091.98,11295.05 12123.37,11298.94 12147.95,11301.61 12183.43,11306.69 12214.38,11310.02 12246.67,11314.49 12278.50,11319.50 12310.79,11324.53 12347.14,11331.84 12371.65,11337.83 12397.99,11343.86 12416.15,11348.62 12442.44,11357.42 12476.89,11368.59 12499.56,11375.65 12523.11,11384.96 12545.74,11394.24 12566.57,11402.39 12594.39,11414.82 12620.81,11428.89 12639.81,11437.00 12657.87,11447.32 12675.03,11456.50 12694.42,11468.51 12716.63,11476.12 12734.68,11486.43 12752.67,11500.07 12774.31,11513.78 12796.82,11529.72 12822.03,11547.93 12840.45,11562.69 12864.24,11583.65 12890.74,11605.77 12917.24,11628.44 12944.15,11652.78 12971.06,11677.68 12999.37,11700.94 13024.46,11725.25 13050.48,11749.03 13074.69,11771.66 13101.17,11794.89 13115.49,11809.57 13133.89,11825.99 13160.60,11854.45">
        <lane id="11.12854_0" index="0" speed="13.89" length="5196.62" shape="8509.86,9982.33 8531.41,9983.19 8551.39,9987.98 8575.93,9992.85 8609.53,10001.77 8640.40,10009.53 8671.71,10018.40 8703.50,10026.18 8738.43,10036.78 8764.77,10042.79 8791.99,10051.04 8817.42,10057.59 8844.57,10069.17 8875.37,10081.37 8898.92,10090.66 8916.98,10100.96 8942.34,10110.84 8977.66,10125.34 9006.56,10141.38 9026.37,10156.16 9049.82,10171.00 9072.32,10188.04 9095.73,10205.10 9115.54,10219.87 9130.80,10233.46 9147.42,10248.18 9171.54,10276.34 9190.77,10297.76 9210.50,10316.98 9231.06,10340.64 9244.85,10360.30 9264.42,10387.83 9284.84,10419.26 9303.86,10452.33 9324.69,10486.54 9341.87,10520.69 9359.53,10553.18 9378.60,10584.03 9397.30,10609.32 9423.73,10635.87 9444.43,10651.77 9462.51,10660.96 9480.62,10667.94 9509.16,10678.99 9540.55,10683.43 9567.88,10685.03 9605.28,10684.59 9637.20,10684.60 9667.30,10684.58 9702.88,10684.10 9727.54,10682.32 9750.34,10682.18 9787.24,10684.50 9815.96,10685.01 9837.85,10685.40 9862.44,10686.95 9888.87,10688.53 9917.09,10691.25 9948.01,10696.24 9972.11,10700.55 10008.48,10706.75 10036.20,10712.24 10058.00,10717.06 10076.18,10720.72 10096.16,10725.51 10117.98,10729.23 10137.07,10732.90 10158.87,10737.73 10180.68,10742.55 10200.68,10746.24 10220.66,10751.04 10242.46,10755.86 10264.26,10760.69 10286.07,10765.52 10306.07,10769.20 10327.89,10772.92 10349.69,10777.75 10367.85,10782.51 10389.67,10786.23 10409.65,10791.03 10431.45,10795.86 10451.45,10799.54 10472.35,10804.35 10490.54,10806.90 10514.17,10811.76 10532.34,10815.41 10551.41,10820.19 10577.32,10825.10 10610.04,10831.23 10645.07,10836.30 10666.91,10838.91 10690.78,10842.94 10733.67,10853.97 10761.39,10859.46 10779.57,10863.12 10798.64,10867.90 10822.95,10872.77 10857.25,10880.04 10884.94,10887.20 10908.56,10892.06 10931.28,10896.90 10955.82,10901.78 10975.80,10906.58 10997.16,10910.29 11026.63,10919.70 11052.94,10927.94 11073.83,10932.75 11100.17,10938.77 11136.47,10948.85 11170.06,10957.78 11202.26,10967.23 11238.55,10977.87 11272.09,10989.57 11298.85,10997.82 11322.83,11008.23 11354.09,11019.89 11383.51,11032.07 11414.76,11043.73 11447.32,11059.29 11476.23,11074.24 11495.68,11083.46 11525.97,11097.88 11558.50,11114.55 11583.81,11127.21 11607.28,11140.95 11632.59,11153.61 11657.88,11167.38 11683.16,11181.15 11700.33,11190.34 11719.31,11199.56 11743.75,11209.98 11766.36,11220.38 11792.64,11229.73 11818.03,11237.95 11845.22,11247.32 11868.81,11254.40 11891.48,11261.47 11923.74,11268.15 11954.64,11274.26 11981.90,11279.74 12008.72,11284.67 12028.75,11286.14 12054.45,11289.93 12091.98,11295.05 12123.37,11298.94 12147.95,11301.61 12183.43,11306.69 12214.38,11310.02 12246.67,11314.49 12278.50,11319.50 12310.79,11324.53 12347.14,11331.84 12371.65,11337.83 12397.99,11343.86 12416.15,11348.62 12442.44,11357.42 12476.89,11368.59 12499.56,11375.65 12523.11,11384.96 12545.74,11394.24 12566.57,11402.39 12594.39,11414.82 12620.81,11428.89 12639.81,11437.00 12657.87,11447.32 12675.03,11456.50 12694.42,11468.51 12716.63,11476.12 12734.68,11486.43 12752.67,11500.07 12774.31,11513.78 12796.82,11529.72 12822.03,11547.93 12840.45,11562.69 12864.24,11583.65 12890.74,11605.77 12917.24,11628.44 12944.15,11652.78 12971.06,11677.68 12999.37,11700.94 13024.46,11725.25 13050.48,11749.03 13074.69,11771.66 13101.17,11794.89 13115.49,11809.57 13133.89,11825.99 13157.06,11850.67"/>
    </edge>
    <edge id="11.12854.12922" from="gneJ184" to="gneJ257" priority="0" spreadType="center" shape="8004.27,9535.57 7984.25,9536.39 7943.39,9551.76 7914.89,9564.02 7885.48,9576.81 7852.38,9591.76 7825.70,9604.61 7803.62,9615.31 7783.38,9624.94 7764.00,9635.49">
        <lane id="11.12854.12922_0" index="0" speed="13.89" length="261.79" shape="7994.05,9535.99 7984.25,9536.39 7943.39,9551.76 7914.89,9564.02 7885.48,9576.81 7852.38,9591.76 7825.70,9604.61 7803.62,9615.31 7783.38,9624.94 7770.56,9631.92"/>
    </edge>
    <edge id="11.12854.12922.261" from="gneJ257" to="23" priority="0" spreadType="center" shape="7764.00,9635.49 7753.96,9638.29 7726.38,9650.57 7707.05,9660.21 7686.81,9669.84 7669.35,9677.30 7648.22,9685.81 7621.58,9696.43 7600.45,9704.94 7577.46,9715.63 7557.23,9725.26 7539.27,9734.93 7515.15,9757.81 7486.21,9769.50 7410.17,9788.05">
        <lane id="11.12854.12922.261_0" index="0" speed="13.89" length="387.68" shape="7753.62,9638.44 7726.38,9650.57 7707.05,9660.21 7686.81,9669.84 7669.35,9677.30 7648.22,9685.81 7621.58,9696.43 7600.45,9704.94 7577.46,9715.63 7557.23,9725.26 7539.27,9734.93 7515.15,9757.81 7486.21,9769.50 7419.24,9785.84"/>
    </edge>
    <edge id="11.12854.5196" from="gneJ180" to="gneJ182" priority="0" spreadType="center" shape="13160.60,11854.45 13189.05,11876.93 13214.18,11899.02 13241.99,11924.49 13272.51,11951.12 13294.94,11971.50 13311.13,11984.00 13331.76,12002.68 13360.07,12025.95 13383.92,12043.02 13406.43,12058.97 13429.87,12073.82 13450.15,12086.95 13482.18,12105.84 13501.12,12117.28 13525.49,12131.59 13559.32,12151.63 13585.95,12166.54 13605.80,12177.99 13627.46,12190.59 13653.65,12204.39 13676.18,12219.22 13702.38,12233.02 13722.21,12245.58 13748.86,12259.38 13780.82,12282.16">
        <lane id="11.12854.5196_0" index="0" speed="13.89" length="756.30" shape="13165.74,11858.51 13189.05,11876.93 13214.18,11899.02 13241.99,11924.49 13272.51,11951.12 13294.94,11971.50 13311.13,11984.00 13331.76,12002.68 13360.07,12025.95 13383.92,12043.02 13406.43,12058.97 13429.87,12073.82 13450.15,12086.95 13482.18,12105.84 13501.12,12117.28 13525.49,12131.59 13559.32,12151.63 13585.95,12166.54 13605.80,12177.99 13627.46,12190.59 13653.65,12204.39 13676.18,12219.22 13702.38,12233.02 13722.21,12245.58 13748.86,12259.38 13779.32,12281.09"/>
    </edge>
    <edge id="11.12854.5952" from="gneJ182" to="gneJ180" priority="0" spreadType="center" shape="13780.82,12282.16 13794.05,12256.88 13790.99,12224.65 13782.30,12201.19 13772.72,12176.60 13761.31,12151.99 13749.86,12129.59 13739.85,12103.61 13724.51,12069.76 13713.19,12040.15 13702.66,12017.77 13690.30,11995.35 13678.87,11971.84 13669.29,11947.26 13654.39,11914.26 13642.12,11886.85 13630.81,11857.24 13618.54,11829.83 13604.56,11796.29 13593.15,11771.67 13581.67,11751.49 13571.17,11727.17 13529.18,11703.93 13500.28,11713.39 13478.22,11722.98 13451.60,11732.48 13424.04,11743.07 13404.27,11752.14 13377.15,11763.85 13348.67,11775.54 13314.66,11789.90 13286.20,11800.47 13258.63,11812.18 13231.08,11822.77 13208.10,11832.34 13190.62,11840.90 13173.16,11848.34 13160.60,11854.45">
        <lane id="11.12854.5952_0" index="0" speed="13.89" length="1051.68" shape="13781.67,12280.53 13794.05,12256.88 13790.99,12224.65 13782.30,12201.19 13772.72,12176.60 13761.31,12151.99 13749.86,12129.59 13739.85,12103.61 13724.51,12069.76 13713.19,12040.15 13702.66,12017.77 13690.30,11995.35 13678.87,11971.84 13669.29,11947.26 13654.39,11914.26 13642.12,11886.85 13630.81,11857.24 13618.54,11829.83 13604.56,11796.29 13593.15,11771.67 13581.67,11751.49 13571.17,11727.17 13529.18,11703.93 13500.28,11713.39 13478.22,11722.98 13451.60,11732.48 13424.04,11743.07 13404.27,11752.14 13377.15,11763.85 13348.67,11775.54 13314.66,11789.90 13286.20,11800.47 13258.63,11812.18 13231.08,11822.77 13208.10,11832.34 13190.62,11840.90 13173.16,11848.34 13166.49,11851.59"/>
    </edge>
    <edge id="11.4882" from="gneJ262" to="gneJ263" priority="0" spreadType="center" shape="5467.13,6332.33 5534.24,6296.05 5551.71,6288.58 5576.53,6277.92 5604.09,6267.30 5622.00,6260.40 5659.23,6244.40 5688.90,6230.49 5729.07,6209.61">
        <lane id="11.4882_0" index="0" speed="13.89" length="289.59" shape="5473.67,6328.79 5534.24,6296.05 5551.71,6288.58 5576.53,6277.92 5604.09,6267.30 5622.00,6260.40 5659.23,6244.40 5688.90,6230.49 5723.30,6212.61"/>
    </edge>
    <edge id="11.4882.289" from="gneJ263" to="gneJ265" priority="0" spreadType="center" shape="5729.07,6209.61 5730.16,6206.25 5713.54,6164.91 5680.33,6080.01 5668.98,6050.41 5660.43,6017.54 5648.71,5982.94 5635.10,5952.19 5619.29,5916.42 5603.55,5877.31 5585.90,5842.33 5570.12,5805.17 5551.66,5764.91 5535.43,5726.91 5522.26,5697.28 5505.34,5657.22">
        <lane id="11.4882.289_0" index="0" speed="13.89" length="597.08" shape="5729.26,6204.02 5713.54,6164.91 5680.33,6080.01 5668.98,6050.41 5660.43,6017.54 5648.71,5982.94 5635.10,5952.19 5619.29,5916.42 5603.55,5877.31 5585.90,5842.33 5570.12,5805.17 5551.66,5764.91 5535.43,5726.91 5522.26,5697.28 5507.55,5662.45"/>
    </edge>
    <edge id="11.4882.881" from="gneJ265" to="gneJ268" priority="0" spreadType="center" shape="5505.34,5657.22 5488.04,5617.91 5473.55,5585.21 5461.30,5554.76 5445.07,5517.32 5432.35,5487.69 5429.30,5453.25 5417.51,5422.53 5402.06,5392.31 5391.62,5372.57">
        <lane id="11.4882.881_0" index="0" speed="13.89" length="308.34" shape="5502.50,5650.76 5488.04,5617.91 5473.55,5585.21 5461.30,5554.76 5445.07,5517.32 5432.35,5487.69 5429.30,5453.25 5417.51,5422.53 5402.06,5392.31 5394.88,5378.74"/>
    </edge>
    <edge id="18" from="gneJ257" to="gneJ176" priority="0" spreadType="center" shape="7763.34,9634.03 7746.48,9596.56 7729.37,9557.98 7713.32,9524.41 7697.43,9481.42 7684.26,9451.78 7672.00,9423.00 7658.06,9385.86 7644.89,9356.23 7635.23,9334.98 7624.68,9312.60 7613.72,9287.72 7601.10,9252.83 7588.85,9223.21 7579.21,9200.85 7569.57,9178.50 7556.87,9148.32 7542.28,9115.88 7529.68,9086.18">
        <lane id="18_0" index="0" speed="13.89" length="595.84" shape="7758.56,9623.41 7746.48,9596.56 7729.37,9557.98 7713.32,9524.41 7697.43,9481.42 7684.26,9451.78 7672.00,9423.00 7658.06,9385.86 7644.89,9356.23 7635.23,9334.98 7624.68,9312.60 7613.72,9287.72 7601.10,9252.83 7588.85,9223.21 7579.21,9200.85 7569.57,9178.50 7556.87,9148.32 7542.28,9115.88 7533.55,9095.31"/>
    </edge>
    <edge id="18.2272" from="gneJ179" to="gneJ110" priority="0" spreadType="center" shape="6868.98,7545.25 6868.40,7543.02 6855.24,7512.84 6840.82,7476.53 6824.80,7440.74 6811.08,7403.34 6796.16,7369.79 6779.47,7332.89 6766.74,7303.82 6781.42,7273.01 6813.22,7254.70 6831.00,7229.50 6839.59,7207.46 6849.08,7186.54 6857.68,7164.50 6867.17,7143.59 6872.14,7120.38 6867.98,7097.00 6859.25,7074.66 6851.45,7051.23 6847.31,7026.74 6849.62,6999.05 6852.84,6971.37 6853.35,6942.53 6853.85,6913.69 6851.62,6884.81 6847.56,6855.89 6845.35,6825.89 6842.20,6796.99 6839.06,6768.09 6835.93,6738.08 6832.77,6710.29 6826.07,6675.78 6814.56,6642.85 6800.75,6610.43 6783.81,6574.63 6758.63,6514.83 6744.57,6483.52 6729.66,6449.42 6710.99,6421.08 6664.29,6404.46 6632.26,6383.37 6620.93,6352.66 6623.20,6327.18 6628.25,6299.54 6631.60,6264.65 6627.63,6230.18 6601.72,6198.66 6574.62,6183.21 6556.55,6172.91 6532.96,6164.74 6513.98,6154.42 6496.57,6132.48 6482.97,6101.18 6478.27,6056.72 6480.67,6024.03 6484.72,6000.80 6489.71,5976.48 6490.23,5946.53 6484.38,5915.92 6472.26,5877.99 6459.98,5849.48 6449.43,5826.55 6435.91,5790.81 6420.56,5755.04 6406.05,5723.72 6389.00,5681.27 6374.56,5645.79 6357.01,5605.27 6343.47,5570.64 6329.41,5539.33 6311.88,5497.97 6296.92,5466.64 6285.53,5439.26 6272.36,5409.08 6261.86,5383.38 6248.68,5354.30 6239.90,5334.18 6230.23,5312.93 6221.46,5292.81 6210.88,5271.54 6198.18,5240.81 6184.57,5210.06 6173.08,5188.78 6163.43,5166.43 6153.79,5142.96 6137.94,5109.95 6121.19,5076.38 6115.26,5063.01">
        <lane id="18.2272_0" index="0" speed="13.89" length="2773.83" shape="6865.73,7536.89 6855.24,7512.84 6840.82,7476.53 6824.80,7440.74 6811.08,7403.34 6796.16,7369.79 6779.47,7332.89 6766.74,7303.82 6781.42,7273.01 6813.22,7254.70 6831.00,7229.50 6839.59,7207.46 6849.08,7186.54 6857.68,7164.50 6867.17,7143.59 6872.14,7120.38 6867.98,7097.00 6859.25,7074.66 6851.45,7051.23 6847.31,7026.74 6849.62,6999.05 6852.84,6971.37 6853.35,6942.53 6853.85,6913.69 6851.62,6884.81 6847.56,6855.89 6845.35,6825.89 6842.20,6796.99 6839.06,6768.09 6835.93,6738.08 6832.77,6710.29 6826.07,6675.78 6814.56,6642.85 6800.75,6610.43 6783.81,6574.63 6758.63,6514.83 6744.57,6483.52 6729.66,6449.42 6710.99,6421.08 6664.29,6404.46 6632.26,6383.37 6620.93,6352.66 6623.20,6327.18 6628.25,6299.54 6631.60,6264.65 6627.63,6230.18 6601.72,6198.66 6574.62,6183.21 6556.55,6172.91 6532.96,6164.74 6513.98,6154.42 6496.57,6132.48 6482.97,6101.18 6478.27,6056.72 6480.67,6024.03 6484.72,6000.80 6489.71,5976.48 6490.23,5946.53 6484.38,5915.92 6472.26,5877.99 6459.98,5849.48 6449.43,5826.55 6435.91,5790.81 6420.56,5755.04 6406.05,5723.72 6389.00,5681.27 6374.56,5645.79 6357.01,5605.27 6343.47,5570.64 6329.41,5539.33 6311.88,5497.97 6296.92,5466.64 6285.53,5439.26 6272.36,5409.08 6261.86,5383.38 6248.68,5354.30 6239.90,5334.18 6230.23,5312.93 6221.46,5292.81 6210.88,5271.54 6198.18,5240.81 6184.57,5210.06 6173.08,5188.78 6163.43,5166.43 6153.79,5142.96 6137.94,5109.95 6121.19,5076.38 6116.86,5066.62"/>
    </edge>
    <edge id="18.5031" from="gneJ110" to="gneJ293" priority="0" spreadType="center" shape="6115.26,5063.01 6105.82,5041.72 6092.19,5012.08 6079.35,4989.11 6071.76,4983.57">
        <lane id="18.5031_0" index="0" speed="13.89" length="91.62" shape="6112.32,5056.39 6105.82,5041.72 6092.19,5012.08 6079.35,4989.11 6072.20,4983.89"/>
    </edge>
    <edge id="18.5031.856" from="gneJ292" to="gneJ268" priority="0" spreadType="center" shape="5358.26,5287.10 5393.10,5371.96">
        <lane id="18.5031.856_0" index="0" speed="13.89" length="92.62" shape="5358.82,5288.47 5390.73,5366.20"/>
    </edge>
    <edge id="18.594" from="gneJ176" to="gneJ179" priority="0" spreadType="center" shape="7529.68,9086.18 7523.55,9071.73 7499.46,9015.28 7478.43,8966.09 7468.73,8947.06 7461.33,8926.68 7444.25,8886.16 7430.27,8851.52 7415.42,8820.34 7397.41,8774.39 7385.60,8745.89 7375.97,8722.42 7366.41,8695.63 7352.28,8668.75 7340.84,8645.25 7329.92,8617.32 7318.09,8589.93 7306.30,8559.77 7290.08,8522.32 7275.14,8489.88 7265.52,8466.41 7255.83,8446.27 7246.21,8423.08 7228.71,8380.34 7215.57,8349.04 7207.74,8327.82 7194.10,8298.74 7180.01,8270.20 7162.97,8227.19 7151.62,8198.14 7141.94,8178.00 7133.17,8157.88 7122.62,8134.95 7109.04,8103.09 7095.27,8068.80 7073.57,8018.70 7056.45,7980.12 7044.65,7950.52 7029.76,7915.31 7016.56,7887.34 7004.30,7858.28 6982.00,7802.97 6970.19,7774.47 6960.52,7753.22 6949.58,7726.95 6937.75,7699.01 6927.20,7676.08 6918.52,7650.97 6904.47,7619.65 6890.43,7587.79 6868.98,7545.25">
        <lane id="18.594_0" index="0" speed="13.89" length="1677.41" shape="7527.41,9080.84 7523.55,9071.73 7499.46,9015.28 7478.43,8966.09 7468.73,8947.06 7461.33,8926.68 7444.25,8886.16 7430.27,8851.52 7415.42,8820.34 7397.41,8774.39 7385.60,8745.89 7375.97,8722.42 7366.41,8695.63 7352.28,8668.75 7340.84,8645.25 7329.92,8617.32 7318.09,8589.93 7306.30,8559.77 7290.08,8522.32 7275.14,8489.88 7265.52,8466.41 7255.83,8446.27 7246.21,8423.08 7228.71,8380.34 7215.57,8349.04 7207.74,8327.82 7194.10,8298.74 7180.01,8270.20 7162.97,8227.19 7151.62,8198.14 7141.94,8178.00 7133.17,8157.88 7122.62,8134.95 7109.04,8103.09 7095.27,8068.80 7073.57,8018.70 7056.45,7980.12 7044.65,7950.52 7029.76,7915.31 7016.56,7887.34 7004.30,7858.28 6982.00,7802.97 6970.19,7774.47 6960.52,7753.22 6949.58,7726.95 6937.75,7699.01 6927.20,7676.08 6918.52,7650.97 6904.47,7619.65 6890.43,7587.79 6872.50,7552.23"/>
    </edge>
    <edge id="2.6218" from="gneJ136" to="gneJ261" priority="0" spreadType="center" shape="6074.39,7468.03 6108.76,7469.86 6130.81,7461.37 6153.80,7450.68 6177.71,7440.00 6211.73,7425.06 6240.22,7412.80 6270.09,7400.56 6301.81,7386.69 6329.89,7372.20 6348.50,7364.94">
        <lane id="2.6218_0" index="0" speed="13.89" length="296.23" shape="6081.32,7468.40 6108.76,7469.86 6130.81,7461.37 6153.80,7450.68 6177.71,7440.00 6211.73,7425.06 6240.22,7412.80 6270.09,7400.56 6301.81,7386.69 6329.89,7372.20 6343.95,7366.71"/>
    </edge>
    <edge id="2.6218.288" from="gneJ261" to="gneJ260" priority="0" spreadType="center" shape="6348.95,7363.41 6357.79,7367.69 6376.45,7396.31 6391.23,7438.72 6394.56,7455.56">
        <lane id="2.6218.288_0" index="0" speed="13.89" length="106.53" shape="6350.56,7364.19 6357.79,7367.69 6376.45,7396.31 6391.23,7438.72 6393.37,7449.52"/>
    </edge>
    <edge id="2.6218.398" from="gneJ260" to="gneJ127" priority="0" spreadType="center" shape="6392.97,7455.72 6377.09,7464.55 6353.20,7474.12 6321.02,7488.54 6292.52,7500.80 6264.46,7514.18 6230.93,7527.46 6203.56,7540.58 6175.55,7564.22 6154.40,7573.29 6130.94,7589.34">
        <lane id="2.6218.398_0" index="0" speed="13.89" length="295.79" shape="6385.50,7459.87 6377.09,7464.55 6353.20,7474.12 6321.02,7488.54 6292.52,7500.80 6264.46,7514.18 6230.93,7527.46 6203.56,7540.58 6175.55,7564.22 6154.40,7573.29 6137.65,7584.75"/>
    </edge>