<?xml version="1.0" encoding="UTF-8"?>

<!-- generated on Wed Feb 19 11:30:05 2020 by Eclipse SUMO netconvert Version 1.5.0
<configuration xmlns:xsi="http://www.w3.org/2001/XMLSchema-instance" xsi:noNamespaceSchemaLocation="http://sumo.dlr.de/xsd/netconvertConfiguration.xsd">

    <input>
        <shapefile-prefix value="routes"/>
    </input>

    <output>
        <plain-output-prefix value="plain"/>
    </output>

    <projection>
        <proj.utm value="true"/>
        <proj.plain-geo value="true"/>
    </projection>

    <formats>
        <shapefile.use-defaults-on-failure value="true"/>
    </formats>

    <report>
        <aggregate-warnings value="5"/>
    </report>

</configuration>
-->

<edges version="1.3" xmlns:xsi="http://www.w3.org/2001/XMLSchema-instance" xsi:noNamespaceSchemaLocation="http://sumo.dlr.de/xsd/edges_file.xsd">
    <edge id="0" from="0" to="1" priority="0" numLanes="1" speed="13.89" shape="-85.196720,35.037360 -85.196750,35.037260 -85.196740,35.037170 -85.196710,35.037070 -85.196680,35.036980 -85.196640,35.036880 -85.196530,35.036620 -85.196270,35.035940 -85.196070,35.035410 -85.195980,35.035150 -85.195940,35.035030 -85.195910,35.034930 -85.195910,35.034850 -85.195850,35.034690 -85.195770,35.034500 -85.195710,35.034330 -85.195640,35.034210 -85.195560,35.034120 -85.195450,35.034050 -85.195320,35.033810 -85.195280,35.033700 -85.195270,35.033600 -85.195270,35.033440 -85.195270,35.033370 -85.195270,35.033290 -85.195240,35.033200 -85.195180,35.033100 -85.195100,35.033030 -85.194990,35.032970 -85.194900,35.032940 -85.194800,35.032920 -85.194660,35.032900 -85.194590,35.032890 -85.194500,35.032880 -85.194540,35.032620 -85.194550,35.032590 -85.194550,35.032570 -85.194560,35.032520 -85.194560,35.032470 -85.194570,35.032400 -85.194580,35.032320 -85.194600,35.032190 -85.194610,35.031970 -85.194660,35.031550 -85.194700,35.031200 -85.194790,35.030510 -85.194810,35.030450 -85.194820,35.030400 -85.194830,35.030330 -85.194850,35.030280 -85.194860,35.030200 -85.194950,35.029900 -85.195100,35.029380 -85.195170,35.029170 -85.195370,35.028580 -85.195440,35.028390 -85.195530,35.028200 -85.195950,35.027390 -85.196530,35.026280 -85.196780,35.025850 -85.197810,35.023780 -85.198340,35.022690 -85.198590,35.022300 -85.201880,35.020210 -85.202450,35.019860 -85.203470,35.019210 -85.205360,35.018020 -85.205740,35.017790 -85.206020,35.017610 -85.206160,35.017530 -85.206990,35.017010 -85.207120,35.016930 -85.208300,35.016190 -85.208810,35.015860 -85.209310,35.015530 -85.209820,35.015090 -85.210750,35.014230 -85.211010,35.013950 -85.211110,35.013850 -85.210770,35.013610 -85.210470,35.013350 -85.210280,35.013080 -85.210210,35.012940 -85.210140,35.012710 -85.210040,35.012380 -85.209890,35.012160 -85.209790,35.012040 -85.209720,35.011990 -85.209660,35.011940 -85.209490,35.011850 -85.209390,35.011800 -85.209030,35.011650 -85.208960,35.011610 -85.208910,35.011560 -85.208860,35.011510 -85.208830,35.011450 -85.208650,35.011090 -85.208610,35.011030 -85.209210,35.010690 -85.210560,35.009930 -85.210990,35.009700 -85.211420,35.009470 -85.211550,35.009600 -85.212040,35.009300 -85.212180,35.009220 -85.212590,35.008980 -85.212680,35.009110 -85.212800,35.009240 -85.212930,35.009390 -85.212970,35.009430 -85.213060,35.009500 -85.213080,35.009510 -85.213270,35.009640 -85.213430,35.009750 -85.213640,35.009880 -85.213760,35.009960 -85.213920,35.010070 -85.214090,35.010190 -85.214220,35.010270 -85.214240,35.010280 -85.214290,35.010420 -85.214360,35.010550 -85.214470,35.010950 -85.214450,35.011060 -85.214630,35.011480 -85.214720,35.011450 -85.215140,35.011320 -85.215370,35.011240 -85.215700,35.011150 -85.215790,35.011120 -85.217400,35.010650 -85.217500,35.010620 -85.218750,35.010260 -85.219380,35.010060 -85.219820,35.009940 -85.220150,35.009920 -85.220360,35.009940 -85.220630,35.010010 -85.220900,35.010100 -85.220930,35.010110 -85.221170,35.010210 -85.221820,35.010450 -85.222030,35.010530 -85.222740,35.010810 -85.223210,35.010980 -85.224330,35.011380 -85.224860,35.011590 -85.225310,35.011760 -85.225990,35.012040 -85.226060,35.012060 -85.227120,35.012450 -85.228300,35.012960 -85.228870,35.013230 -85.229650,35.013560 -85.230130,35.013750 -85.231000,35.014120 -85.232290,35.014660 -85.233920,35.015340 -85.234520,35.015590 -85.235580,35.016030 -85.235990,35.016220 -85.236380,35.016460 -85.236920,35.016790 -85.237090,35.016910 -85.237900,35.017400 -85.239000,35.018100 -85.239360,35.018360 -85.239560,35.018550 -85.239710,35.018700 -85.239840,35.018850 -85.239940,35.019050 -85.240430,35.020300 -85.240560,35.020520 -85.241040,35.021130 -85.241580,35.021880 -85.242000,35.022250 -85.242550,35.022560 -85.242880,35.022720 -85.244000,35.023100 -85.244960,35.023520 -85.245470,35.023740 -85.245870,35.023920 -85.246120,35.024020 -85.246450,35.024150" spreadType="center"/>
    <edge id="1" from="1" to="3" priority="0" numLanes="1" speed="13.89" spreadType="center"/>
    <edge id="10" from="19" to="21" priority="0" numLanes="1" speed="13.89" spreadType="center"/>
    <edge id="100" from="199" to="201" priority="0" numLanes="1" speed="13.89"/>
    <edge id="1000" from="1999" to="2001" priority="0" numLanes="1" speed="13.89" spreadType="center"/>
    <edge id="1001" from="2001" to="2003" priority="0" numLanes="1" speed="13.89" spreadType="center"/>
    <edge id="1002" from="2003" to="2005" priority="0" numLanes="1" speed="13.89" spreadType="center"/>
    <edge id="1003" from="2005" to="2007" priority="0" numLanes="1" speed="13.89" spreadType="center"/>
    <edge id="1004" from="2007" to="2009" priority="0" numLanes="1" speed="13.89" spreadType="center"/>
    <edge id="1005" from="2009" to="2011" priority="0" numLanes="1" speed="13.89" spreadType="center"/>
    <edge id="1006" from="2011" to="2013" priority="0" numLanes="1" speed="13.89" spreadType="center"/>
    <edge id="1007" from="2013" to="2015" priority="0" numLanes="1" speed="13.89" spreadType="center"/>
    <edge id="1008" from="2015" to="2017" priority="0" numLanes="1" speed="13.89" spreadType="center"/>
    <edge id="1009" from="2017" to="2019" priority="0" numLanes="1" speed="13.89" spreadType="center"/>
    <edge id="101" from="201" to="203" priority="0" numLanes="1" speed="13.89"/>
    <edge id="1010" from="2019" to="2021" priority="0" numLanes="1" speed="13.89" shape="-85.281488,35.014646 -85.281670,35.014330 -85.281890,35.013890 -85.282050,35.013640 -85.282100,35.013500 -85.282270,35.013190 -85.282610,35.012590 -85.282780,35.012320 -85.282970,35.011830 -85.283130,35.011550 -85.283136,35.011505" spreadType="center"/>
    <edge id="1011" from="2021" to="2023" priority="0" numLanes="1" speed="13.89" shape="-85.283136,35.011505 -85.283150,35.011400 -85.282970,35.011310 -85.282460,35.011120 -85.282420,35.011090 -85.281890,35.010910 -85.281330,35.010680 -85.280950,35.010550 -85.280350,35.010310 -85.278840,35.009750 -85.278620,35.009680 -85.278090,35.009460 -85.277520,35.009250 -85.277220,35.009130 -85.277220,35.009040 -85.277220,35.008970 -85.277280,35.008810 -85.277390,35.008640 -85.277440,35.008470 -85.277770,35.007780 -85.277850,35.007570 -85.278110,35.007020 -85.278190,35.006930 -85.278380,35.006630 -85.278660,35.006290 -85.278740,35.006110 -85.278840,35.005980 -85.278890,35.005850 -85.278920,35.005830 -85.279030,35.005660 -85.279300,35.005130 -85.279710,35.004430 -85.279900,35.004040 -85.280110,35.003670 -85.280220,35.003520 -85.280470,35.003020 -85.280590,35.002850 -85.280740,35.002530 -85.280864,35.002325" spreadType="center"/>
    <edge id="1012" from="2023" to="2025" priority="0" numLanes="1" speed="13.89" shape="-85.280864,35.002325 -85.281000,35.002100 -85.281090,35.001890 -85.281220,35.001690 -85.281677,35.000865" spreadType="center"/>
    <edge id="1013" from="2025" to="2027" priority="0" numLanes="1" speed="13.89" spreadType="center"/>
    <edge id="1014" from="2027" to="2029" priority="0" numLanes="1" speed="13.89" spreadType="center"/>
    <edge id="1015" from="2029" to="2031" priority="0" numLanes="1" speed="13.89" spreadType="center"/>
    <edge id="1016" from="2031" to="2033" priority="0" numLanes="1" speed="13.89" spreadType="center"/>
    <edge id="1017" from="2033" to="2035" priority="0" numLanes="1" speed="13.89" spreadType="center"/>
    <edge id="1018" from="2035" to="2037" priority="0" numLanes="1" speed="13.89" spreadType="center"/>
    <edge id="1019" from="2037" to="2039" priority="0" numLanes="1" speed="13.89" spreadType="center"/>
    <edge id="102" from="203" to="205" priority="0" numLanes="1" speed="13.89"/>
    <edge id="1020" from="2039" to="2041" priority="0" numLanes="1" speed="13.89" spreadType="center"/>
    <edge id="1021" from="2041" to="2043" priority="0" numLanes="1" speed="13.89" spreadType="center"/>
    <edge id="1022" from="2043" to="2045" priority="0" numLanes="1" speed="13.89" spreadType="center"/>
    <edge id="1023" from="2045" to="2047" priority="0" numLanes="1" speed="13.89" spreadType="center"/>
    <edge id="1024" from="2047" to="2049" priority="0" numLanes="1" speed="13.89" spreadType="center"/>
    <edge id="1025" from="2049" to="2051" priority="0" numLanes="1" speed="13.89" spreadType="center"/>
    <edge id="1026" from="2051" to="2053" priority="0" numLanes="1" speed="13.89" spreadType="center"/>
    <edge id="1027" from="2053" to="2055" priority="0" numLanes="1" speed="13.89" spreadType="center"/>
    <edge id="1028" from="2055" to="2057" priority="0" numLanes="1" speed="13.89" spreadType="center"/>
    <edge id="1029" from="2057" to="2059" priority="0" numLanes="1" speed="13.89" spreadType="center"/>
    <edge id="103" from="205" to="207" priority="0" numLanes="1" speed="13.89"/>
    <edge id="1030" from="2059" to="2061" priority="0" numLanes="1" speed="13.89" spreadType="center"/>
    <edge id="1031" from="2061" to="2063" priority="0" numLanes="1" speed="13.89" spreadType="center"/>
    <edge id="1032" from="2063" to="2065" priority="0" numLanes="1" speed="13.89" spreadType="center"/>
    <edge id="1033" from="2065" to="2067" priority="0" numLanes="1" speed="13.89" spreadType="center"/>
    <edge id="1034" from="2067" to="2069" priority="0" numLanes="1" speed="13.89" spreadType="center"/>
    <edge id="1035" from="2069" to="2071" priority="0" numLanes="1" speed="13.89" spreadType="center"/>
    <edge id="1036" from="2071" to="2073" priority="0" numLanes="1" speed="13.89" spreadType="center"/>
    <edge id="1037" from="2073" to="2075" priority="0" numLanes="1" speed="13.89" spreadType="center"/>
    <edge id="1038" from="2075" to="2077" priority="0" numLanes="1" speed="13.89" spreadType="center"/>
    <edge id="1039" from="2077" to="2079" priority="0" numLanes="1" speed="13.89" spreadType="center"/>
    <edge id="104" from="207" to="209" priority="0" numLanes="1" speed="13.89"/>
    <edge id="1040" from="2079" to="2081" priority="0" numLanes="1" speed="13.89" spreadType="center"/>
    <edge id="1041" from="2081" to="2083" priority="0" numLanes="1" speed="13.89" spreadType="center"/>
    <edge id="1042" from="2083" to="2085" priority="0" numLanes="1" speed="13.89" spreadType="center"/>
    <edge id="1043" from="2085" to="2087" priority="0" numLanes="1" speed="13.89" spreadType="center"/>
    <edge id="1044" from="2087" to="2089" priority="0" numLanes="1" speed="13.89" spreadType="center"/>
    <edge id="1045" from="2089" to="2091" priority="0" numLanes="1" speed="13.89" spreadType="center"/>
    <edge id="1046" from="2091" to="2093" priority="0" numLanes="1" speed="13.89" spreadType="center"/>
    <edge id="1047" from="2093" to="2095" priority="0" numLanes="1" speed="13.89" spreadType="center"/>
    <edge id="1048" from="2095" to="2097" priority="0" numLanes="1" speed="13.89" spreadType="center"/>
    <edge id="1049" from="2097" to="2099" priority="0" numLanes="1" speed="13.89" spreadType="center"/>
    <edge id="105" from="209" to="211" priority="0" numLanes="1" speed="13.89" shape="-85.308717,35.061622 -85.309060,35.059750" spreadType="center"/>
    <edge id="1050" from="2099" to="2101" priority="0" numLanes="1" speed="13.89" spreadType="center"/>
    <edge id="1051" from="2101" to="2103" priority="0" numLanes="1" speed="13.89" spreadType="center"/>
    <edge id="1052" from="2103" to="2105" priority="0" numLanes="1" speed="13.89" spreadType="center"/>
    <edge id="1053" from="2105" to="2107" priority="0" numLanes="1" speed="13.89" spreadType="center"/>
    <edge id="1054" from="2107" to="2109" priority="0" numLanes="1" speed="13.89" spreadType="center"/>
    <edge id="1055" from="2109" to="2111" priority="0" numLanes="1" speed="13.89" spreadType="center"/>
    <edge id="1056" from="2111" to="2113" priority="0" numLanes="1" speed="13.89" spreadType="center"/>
    <edge id="1057" from="2113" to="2115" priority="0" numLanes="1" speed="13.89" spreadType="center"/>
    <edge id="1058" from="2115" to="2117" priority="0" numLanes="1" speed="13.89" spreadType="center"/>
    <edge id="1059" from="2117" to="131" priority="0" numLanes="1" speed="13.89" spreadType="center"/>
    <edge id="106" from="211" to="213" priority="0" numLanes="1" speed="13.89" shape="-85.309060,35.059750 -85.309767,35.056192" spreadType="center"/>
    <edge id="1060" from="2120" to="1659" priority="0" numLanes="1" speed="13.89" shape="-85.312010,35.066960 -85.312120,35.066010 -85.312550,35.066040 -85.312650,35.066040 -85.312740,35.066020 -85.313290,35.065790 -85.313510,35.065710 -85.313600,35.065780 -85.314720,35.066720 -85.315060,35.067040 -85.315670,35.067530 -85.316610,35.068370 -85.317020,35.068740 -85.316810,35.068820 -85.315300,35.068700 -85.315130,35.068690 -85.313020,35.068550 -85.311840,35.068460 -85.311070,35.068410 -85.310150,35.068370 -85.309320,35.068320 -85.308960,35.068290" spreadType="center"/>
    <edge id="1061" from="1659" to="1661" priority="0" numLanes="1" speed="13.89" spreadType="center"/>
    <edge id="1062" from="1661" to="1621" priority="0" numLanes="1" speed="13.89" spreadType="center"/>
    <edge id="1063" from="259" to="1735" priority="0" numLanes="1" speed="13.89" shape="-85.310590,35.046400 -85.310560,35.045891 -85.310560,35.045890" spreadType="center"/>
    <edge id="1064" from="267" to="269" priority="0" numLanes="1" speed="13.89" shape="-85.310360,35.044830 -85.310710,35.044820 -85.311450,35.044800"/>
    <edge id="1065" from="273" to="1749" priority="0" numLanes="1" speed="13.89" shape="-85.312056,35.044876 -85.312420,35.044220 -85.312430,35.044220" spreadType="center"/>
    <edge id="1066" from="2019" to="2021" priority="0" numLanes="1" speed="13.89" shape="-85.281488,35.014646 -85.281460,35.014630 -85.281590,35.014370 -85.281750,35.014070 -85.282000,35.013630 -85.282110,35.013410 -85.282300,35.013050 -85.282400,35.012880 -85.282500,35.012690 -85.282690,35.012340 -85.282810,35.012130 -85.283040,35.011680 -85.283136,35.011505" spreadType="center"/>
    <edge id="1067" from="2021" to="2023" priority="0" numLanes="1" speed="13.89" shape="-85.283136,35.011505 -85.283210,35.011370 -85.283580,35.010660 -85.283790,35.010270 -85.284080,35.009720 -85.284520,35.008880 -85.284930,35.008100 -85.284960,35.008020 -85.284990,35.007940 -85.285580,35.006800 -85.285820,35.006340 -85.286280,35.005500 -85.286670,35.004780 -85.286680,35.004650 -85.286420,35.004550 -85.285700,35.004280 -85.285540,35.004220 -85.284700,35.003910 -85.284440,35.003810 -85.283680,35.003540 -85.283390,35.003410 -85.283290,35.003330 -85.283130,35.003190 -85.282720,35.003030 -85.281950,35.002740 -85.281650,35.002620 -85.280864,35.002325" spreadType="center"/>
    <edge id="1068" from="2023" to="2025" priority="0" numLanes="1" speed="13.89" shape="-85.280864,35.002325 -85.280850,35.002320 -85.281460,35.001210 -85.281650,35.000850 -85.281677,35.000865" spreadType="center"/>
    <edge id="107" from="213" to="215" priority="0" numLanes="1" speed="13.89"/>
    <edge id="108" from="215" to="217" priority="0" numLanes="1" speed="13.89"/>
    <edge id="109" from="217" to="219" priority="0" numLanes="1" speed="13.89"/>
    <edge id="11" from="21" to="23" priority="0" numLanes="1" speed="13.89" spreadType="center"/>
    <edge id="110" from="219" to="221" priority="0" numLanes="1" speed="13.89"/>
    <edge id="111" from="221" to="223" priority="0" numLanes="1" speed="13.89"/>
    <edge id="112" from="223" to="225" priority="0" numLanes="1" speed="13.89"/>
    <edge id="113" from="225" to="227" priority="0" numLanes="1" speed="13.89" spreadType="center"/>
    <edge id="114" from="227" to="229" priority="0" numLanes="1" speed="13.89" spreadType="center"/>
    <edge id="115" from="229" to="231" priority="0" numLanes="1" speed="13.89" spreadType="center"/>
    <edge id="116" from="231" to="233" priority="0" numLanes="1" speed="13.89" spreadType="center"/>
    <edge id="117" from="233" to="235" priority="0" numLanes="1" speed="13.89" spreadType="center"/>
    <edge id="118" from="235" to="237" priority="0" numLanes="1" speed="13.89" spreadType="center"/>
    <edge id="119" from="237" to="239" priority="0" numLanes="1" speed="13.89" spreadType="center"/>
    <edge id="12" from="23" to="25" priority="0" numLanes="1" speed="13.89" spreadType="center"/>
    <edge id="120" from="239" to="241" priority="0" numLanes="1" speed="13.89" spreadType="center"/>
    <edge id="121" from="241" to="243" priority="0" numLanes="1" speed="13.89" spreadType="center"/>
    <edge id="122" from="243" to="245" priority="0" numLanes="1" speed="13.89" spreadType="center"/>
    <edge id="123" from="245" to="247" priority="0" numLanes="1" speed="13.89" spreadType="center"/>
    <edge id="124" from="247" to="249" priority="0" numLanes="1" speed="13.89" spreadType="center"/>
    <edge id="125" from="249" to="251" priority="0" numLanes="1" speed="13.89" spreadType="center"/>
    <edge id="126" from="251" to="253" priority="0" numLanes="1" speed="13.89" spreadType="center"/>
    <edge id="127" from="253" to="255" priority="0" numLanes="1" speed="13.89" spreadType="center"/>
    <edge id="128" from="255" to="257" priority="0" numLanes="1" speed="13.89" spreadType="center"/>
    <edge id="129" from="257" to="259" priority="0" numLanes="1" speed="13.89" spreadType="center"/>
    <edge id="13" from="25" to="27" priority="0" numLanes="1" speed="13.89" spreadType="center"/>
    <edge id="130" from="259" to="261" priority="0" numLanes="1" speed="13.89" spreadType="center"/>
    <edge id="131" from="262" to="263" priority="0" numLanes="1" speed="13.89" shape="-85.310558,35.045861 -85.310560,35.045860 -85.310550,35.045730" spreadType="center"/>
    <edge id="132" from="263" to="265" priority="0" numLanes="1" speed="13.89" shape="-85.310550,35.045730 -85.310397,35.045176" spreadType="center"/>
    <edge id="133" from="265" to="267" priority="0" numLanes="1" speed="13.89"/>
    <edge id="134" from="267" to="269" priority="0" numLanes="1" speed="13.89" shape="-85.310360,35.044830 -85.311040,35.044810 -85.311450,35.044800"/>
    <edge id="135" from="269" to="271" priority="0" numLanes="1" speed="13.89"/>
    <edge id="136" from="271" to="273" priority="0" numLanes="1" speed="13.89"/>
    <edge id="137" from="273" to="275" priority="0" numLanes="1" speed="13.89" shape="-85.312056,35.044876 -85.312200,35.044600 -85.312510,35.044070 -85.312512,35.044072" spreadType="center"/>
    <edge id="138" from="275" to="277" priority="0" numLanes="1" speed="13.89" shape="-85.312512,35.044072 -85.312520,35.044080 -85.312576,35.043995" spreadType="center"/>
    <edge id="139" from="277" to="279" priority="0" numLanes="1" speed="13.89"/>
    <edge id="14" from="27" to="29" priority="0" numLanes="1" speed="13.89" spreadType="center"/>
    <edge id="140" from="279" to="281" priority="0" numLanes="1" speed="13.89"/>
    <edge id="141" from="281" to="283" priority="0" numLanes="1" speed="13.89"/>
    <edge id="142" from="283" to="285" priority="0" numLanes="1" speed="13.89"/>
    <edge id="143" from="285" to="287" priority="0" numLanes="1" speed="13.89"/>
    <edge id="144" from="287" to="289" priority="0" numLanes="1" speed="13.89"/>
    <edge id="145" from="289" to="291" priority="0" numLanes="1" speed="13.89" shape="-85.310230,35.043940 -85.309820,35.043940 -85.309820,35.043945" spreadType="center"/>
    <edge id="146" from="291" to="293" priority="0" numLanes="1" speed="13.89" shape="-85.309820,35.043945 -85.309820,35.043950 -85.309350,35.043950" spreadType="center"/>
    <edge id="147" from="293" to="295" priority="0" numLanes="1" speed="13.89"/>
    <edge id="148" from="295" to="297" priority="0" numLanes="1" speed="13.89"/>
    <edge id="149" from="297" to="299" priority="0" numLanes="1" speed="13.89"/>
    <edge id="15" from="29" to="31" priority="0" numLanes="1" speed="13.89" spreadType="center"/>
    <edge id="150" from="299" to="301" priority="0" numLanes="1" speed="13.89"/>
    <edge id="151" from="301" to="303" priority="0" numLanes="1" speed="13.89"/>
    <edge id="152" from="303" to="305" priority="0" numLanes="1" speed="13.89" shape="-85.309170,35.042670 -85.309110,35.042560 -85.308800,35.041930"/>
    <edge id="153" from="305" to="307" priority="0" numLanes="1" speed="13.89"/>
    <edge id="154" from="307" to="309" priority="0" numLanes="1" speed="13.89"/>
    <edge id="155" from="309" to="311" priority="0" numLanes="1" speed="13.89"/>
    <edge id="156" from="311" to="313" priority="0" numLanes="1" speed="13.89"/>
    <edge id="157" from="313" to="315" priority="0" numLanes="1" speed="13.89"/>
    <edge id="158" from="315" to="317" priority="0" numLanes="1" speed="13.89"/>
    <edge id="159" from="317" to="319" priority="0" numLanes="1" speed="13.89"/>
    <edge id="16" from="31" to="33" priority="0" numLanes="1" speed="13.89" spreadType="center"/>
    <edge id="160" from="319" to="321" priority="0" numLanes="1" speed="13.89"/>
    <edge id="161" from="321" to="323" priority="0" numLanes="1" speed="13.89"/>
    <edge id="162" from="323" to="325" priority="0" numLanes="1" speed="13.89"/>
    <edge id="163" from="325" to="327" priority="0" numLanes="1" speed="13.89"/>
    <edge id="164" from="327" to="329" priority="0" numLanes="1" speed="13.89"/>
    <edge id="165" from="329" to="331" priority="0" numLanes="1" speed="13.89"/>
    <edge id="166" from="331" to="333" priority="0" numLanes="1" speed="13.89"/>
    <edge id="167" from="333" to="335" priority="0" numLanes="1" speed="13.89"/>
    <edge id="168" from="335" to="337" priority="0" numLanes="1" speed="13.89" spreadType="center"/>
    <edge id="169" from="337" to="339" priority="0" numLanes="1" speed="13.89" spreadType="center"/>
    <edge id="17" from="33" to="35" priority="0" numLanes="1" speed="13.89" spreadType="center"/>
    <edge id="170" from="339" to="341" priority="0" numLanes="1" speed="13.89" shape="-85.308300,35.034400 -85.308460,35.033550 -85.308650,35.032570" spreadType="center"/>
    <edge id="171" from="341" to="343" priority="0" numLanes="1" speed="13.89" spreadType="center"/>
    <edge id="172" from="343" to="345" priority="0" numLanes="1" speed="13.89" spreadType="center"/>
    <edge id="173" from="345" to="347" priority="0" numLanes="1" speed="13.89" spreadType="center"/>
    <edge id="174" from="347" to="349" priority="0" numLanes="1" speed="13.89" spreadType="center"/>
    <edge id="175" from="349" to="351" priority="0" numLanes="1" speed="13.89" spreadType="center"/>
    <edge id="176" from="351" to="353" priority="0" numLanes="1" speed="13.89" spreadType="center"/>
    <edge id="177" from="353" to="355" priority="0" numLanes="1" speed="13.89" spreadType="center"/>
    <edge id="178" from="355" to="357" priority="0" numLanes="1" speed="13.89" spreadType="center"/>
    <edge id="179" from="357" to="359" priority="0" numLanes="1" speed="13.89" spreadType="center"/>
    <edge id="18" from="35" to="37" priority="0" numLanes="1" speed="13.89" spreadType="center"/>
    <edge id="180" from="359" to="361" priority="0" numLanes="1" speed="13.89" spreadType="center"/>
    <edge id="181" from="361" to="363" priority="0" numLanes="1" speed="13.89" spreadType="center"/>
    <edge id="182" from="363" to="365" priority="0" numLanes="1" speed="13.89" shape="-85.310940,35.026890 -85.311077,35.026574" spreadType="center"/>
    <edge id="183" from="365" to="367" priority="0" numLanes="1" speed="13.89"/>
    <edge id="184" from="367" to="369" priority="0" numLanes="1" speed="13.89"/>
    <edge id="185" from="369" to="371" priority="0" numLanes="1" speed="13.89"/>
    <edge id="186" from="371" to="373" priority="0" numLanes="1" speed="13.89"/>
    <edge id="187" from="373" to="375" priority="0" numLanes="1" speed="13.89"/>
    <edge id="188" from="375" to="377" priority="0" numLanes="1" speed="13.89"/>
    <edge id="189" from="377" to="379" priority="0" numLanes="1" speed="13.89"/>
    <edge id="19" from="37" to="39" priority="0" numLanes="1" speed="13.89" spreadType="center"/>
    <edge id="190" from="379" to="381" priority="0" numLanes="1" speed="13.89"/>
    <edge id="191" from="381" to="383" priority="0" numLanes="1" speed="13.89"/>
    <edge id="192" from="383" to="385" priority="0" numLanes="1" speed="13.89"/>
    <edge id="193" from="385" to="387" priority="0" numLanes="1" speed="13.89"/>
    <edge id="194" from="387" to="389" priority="0" numLanes="1" speed="13.89"/>
    <edge id="195" from="389" to="391" priority="0" numLanes="1" speed="13.89"/>
    <edge id="196" from="391" to="393" priority="0" numLanes="1" speed="13.89"/>
    <edge id="197" from="393" to="395" priority="0" numLanes="1" speed="13.89"/>
    <edge id="198" from="395" to="397" priority="0" numLanes="1" speed="13.89"/>
    <edge id="199" from="397" to="399" priority="0" numLanes="1" speed="13.89"/>