<?xml version="1.0" encoding="UTF-8"?>

<!-- generated on Wed Feb 19 11:30:05 2020 by Eclipse SUMO netconvert Version 1.5.0
<configuration xmlns:xsi="http://www.w3.org/2001/XMLSchema-instance" xsi:noNamespaceSchemaLocation="http://sumo.dlr.de/xsd/netconvertConfiguration.xsd">

    <input>
        <shapefile-prefix value="routes"/>
    </input>

    <output>
        <plain-output-prefix value="plain"/>
    </output>

    <projection>
        <proj.utm value="true"/>
        <proj.plain-geo value="true"/>
    </projection>

    <formats>
        <shapefile.use-defaults-on-failure value="true"/>
    </formats>

    <report>
        <aggregate-warnings value="5"/>
    </report>

</configuration>
-->

<nodes version="1.3" xmlns:xsi="http://www.w3.org/2001/XMLSchema-instance" xsi:noNamespaceSchemaLocation="http://sumo.dlr.de/xsd/nodes_file.xsd">
    <node id="0" x="-85.196720" y="35.037360" type="priority"/>
    <node id="1" x="-85.246450" y="35.024150" type="priority"/>
    <node id="1027" x="-85.307938" y="35.040282" type="priority"/>
    <node id="1039" x="-85.309335" y="35.043190" type="priority"/>
    <node id="1061" x="-85.312123" y="35.044729" type="dead_end"/>
    <node id="1062" x="-85.312124" y="35.044729" type="priority"/>
    <node id="1073" x="-85.310370" y="35.045720" type="priority"/>
    <node id="1075" x="-85.310376" y="35.045998" type="priority"/>
    <node id="1077" x="-85.310380" y="35.046230" type="priority"/>
    <node id="1079" x="-85.310410" y="35.047080" type="priority"/>
    <node id="1081" x="-85.310460" y="35.048360" type="priority"/>
    <node id="1083" x="-85.310490" y="35.049650" type="priority"/>
    <node id="1085" x="-85.310530" y="35.050920" type="priority"/>
    <node id="1087" x="-85.310550" y="35.051610" type="priority"/>
    <node id="1089" x="-85.310580" y="35.052150" type="priority"/>
    <node id="1091" x="-85.310580" y="35.052230" type="priority"/>
    <node id="1093" x="-85.310590" y="35.052360" type="priority"/>
    <node id="1095" x="-85.310590" y="35.052430" type="priority"/>
    <node id="1097" x="-85.310600" y="35.052800" type="priority"/>
    <node id="1099" x="-85.310610" y="35.053080" type="priority"/>
    <node id="1101" x="-85.310620" y="35.053440" type="priority"/>
    <node id="1103" x="-85.310620" y="35.053470" type="priority"/>
    <node id="1105" x="-85.310620" y="35.053490" type="priority"/>
    <node id="1107" x="-85.310620" y="35.053550" type="priority"/>
    <node id="1109" x="-85.310620" y="35.053650" type="priority"/>
    <node id="1111" x="-85.310650" y="35.054210" type="priority"/>
    <node id="1127" x="-85.309242" y="35.058817" type="priority"/>
    <node id="1129" x="-85.309240" y="35.058820" type="priority"/>
    <node id="1149" x="-85.305370" y="35.061980" type="priority"/>
    <node id="1151" x="-85.305370" y="35.061970" type="priority"/>
    <node id="1153" x="-85.304890" y="35.061769" type="priority"/>
    <node id="1179" x="-85.308050" y="35.040500" type="dead_end"/>
    <node id="1206" x="-85.288020" y="34.984800" type="dead_end"/>
    <node id="1207" x="-85.288040" y="34.984650" type="priority"/>
    <node id="1209" x="-85.288270" y="34.984100" type="priority"/>
    <node id="1211" x="-85.288120" y="34.984100" type="priority"/>
    <node id="1213" x="-85.287280" y="34.984110" type="priority"/>
    <node id="1215" x="-85.286670" y="34.984170" type="priority"/>
    <node id="1217" x="-85.286900" y="34.984700" type="priority"/>
    <node id="1219" x="-85.286990" y="34.984930" type="priority"/>
    <node id="1221" x="-85.287050" y="34.985090" type="priority"/>
    <node id="1223" x="-85.287250" y="34.985580" type="priority"/>
    <node id="1225" x="-85.287350" y="34.985770" type="priority"/>
    <node id="1227" x="-85.287730" y="34.986380" type="priority"/>
    <node id="1229" x="-85.288050" y="34.986860" type="priority"/>
    <node id="1231" x="-85.288550" y="34.987640" type="priority"/>
    <node id="1233" x="-85.288450" y="34.987700" type="priority"/>
    <node id="1235" x="-85.287770" y="34.988920" type="priority"/>
    <node id="1237" x="-85.287300" y="34.989780" type="priority"/>
    <node id="1239" x="-85.286840" y="34.990650" type="priority"/>
    <node id="1241" x="-85.286610" y="34.991070" type="priority"/>
    <node id="1243" x="-85.286400" y="34.991450" type="priority"/>
    <node id="1245" x="-85.285680" y="34.992830" type="priority"/>
    <node id="1247" x="-85.284980" y="34.994130" type="priority"/>
    <node id="1249" x="-85.284400" y="34.995200" type="priority"/>
    <node id="1251" x="-85.284260" y="34.995450" type="priority"/>
    <node id="1253" x="-85.283940" y="34.996040" type="priority"/>
    <node id="1255" x="-85.283620" y="34.996650" type="priority"/>
    <node id="1257" x="-85.283170" y="34.997440" type="priority"/>
    <node id="1259" x="-85.282780" y="34.998190" type="priority"/>
    <node id="1261" x="-85.282460" y="34.998830" type="priority"/>
    <node id="1263" x="-85.282490" y="34.999020" type="priority"/>
    <node id="1265" x="-85.282520" y="34.999180" type="priority"/>
    <node id="1267" x="-85.282470" y="34.999360" type="priority"/>
    <node id="1269" x="-85.281880" y="35.000440" type="priority"/>
    <node id="127" x="-85.212719" y="35.009152" type="dead_end"/>
    <node id="1271" x="-85.281460" y="35.001210" type="priority"/>
    <node id="1273" x="-85.281126" y="35.001818" type="priority"/>
    <node id="1275" x="-85.281130" y="35.001820" type="priority"/>
    <node id="1277" x="-85.280850" y="35.002320" type="priority"/>
    <node id="1279" x="-85.283210" y="35.011370" type="priority"/>
    <node id="128" x="-85.288150" y="34.984730" type="dead_end"/>
    <node id="1281" x="-85.283040" y="35.011680" type="priority"/>
    <node id="1283" x="-85.282810" y="35.012130" type="priority"/>
    <node id="1285" x="-85.282690" y="35.012340" type="priority"/>
    <node id="1287" x="-85.282650" y="35.012400" type="priority"/>
    <node id="1289" x="-85.282656" y="35.012402" type="priority"/>
    <node id="129" x="-85.311840" y="35.053850" type="priority"/>
    <node id="1291" x="-85.282500" y="35.012690" type="priority"/>
    <node id="1293" x="-85.282400" y="35.012880" type="priority"/>
    <node id="1295" x="-85.282300" y="35.013050" type="priority"/>
    <node id="1297" x="-85.282110" y="35.013410" type="priority"/>
    <node id="1299" x="-85.282000" y="35.013630" type="priority"/>
    <node id="13" x="-85.208010" y="35.060230" type="priority"/>
    <node id="1301" x="-85.281750" y="35.014070" type="priority"/>
    <node id="1303" x="-85.281590" y="35.014370" type="priority"/>
    <node id="1305" x="-85.281400" y="35.014740" type="priority"/>
    <node id="1307" x="-85.281080" y="35.015350" type="priority"/>
    <node id="1309" x="-85.280940" y="35.015620" type="priority"/>
    <node id="131" x="-85.288080" y="34.984720" type="dead_end"/>
    <node id="1311" x="-85.280780" y="35.015860" type="priority"/>
    <node id="1313" x="-85.280300" y="35.016770" type="priority"/>
    <node id="1315" x="-85.280120" y="35.017130" type="priority"/>
    <node id="1317" x="-85.279690" y="35.017930" type="priority"/>
    <node id="1319" x="-85.277150" y="35.017010" type="priority"/>
    <node id="132" x="-85.304020" y="35.046880" type="priority"/>
    <node id="1321" x="-85.276660" y="35.016830" type="priority"/>
    <node id="1323" x="-85.276170" y="35.016650" type="priority"/>
    <node id="1325" x="-85.275600" y="35.016450" type="priority"/>
    <node id="1327" x="-85.274790" y="35.016170" type="priority"/>
    <node id="1329" x="-85.274150" y="35.015950" type="priority"/>
    <node id="133" x="-85.287740" y="35.045030" type="dead_end"/>
    <node id="1331" x="-85.273830" y="35.015830" type="priority"/>
    <node id="1333" x="-85.273710" y="35.015770" type="priority"/>
    <node id="1335" x="-85.273590" y="35.015690" type="priority"/>
    <node id="1337" x="-85.272910" y="35.016780" type="priority"/>
    <node id="1339" x="-85.272220" y="35.018020" type="priority"/>
    <node id="134" x="-85.287790" y="35.044960" type="dead_end"/>
    <node id="1341" x="-85.271580" y="35.019180" type="priority"/>
    <node id="1343" x="-85.271100" y="35.019870" type="priority"/>
    <node id="1345" x="-85.270490" y="35.020750" type="priority"/>
    <node id="1347" x="-85.269500" y="35.022200" type="priority"/>
    <node id="1349" x="-85.270390" y="35.022530" type="priority"/>
    <node id="135" x="-85.299149" y="35.045072" type="priority"/>
    <node id="1351" x="-85.271290" y="35.022870" type="priority"/>
    <node id="1353" x="-85.271710" y="35.023030" type="priority"/>
    <node id="1355" x="-85.272630" y="35.023360" type="priority"/>
    <node id="1357" x="-85.273040" y="35.023520" type="priority"/>
    <node id="1359" x="-85.273960" y="35.023860" type="priority"/>
    <node id="1361" x="-85.274410" y="35.024030" type="priority"/>
    <node id="1363" x="-85.275780" y="35.024530" type="priority"/>
    <node id="1365" x="-85.276090" y="35.024650" type="priority"/>
    <node id="1367" x="-85.277180" y="35.025050" type="priority"/>
    <node id="1369" x="-85.277970" y="35.025340" type="priority"/>
    <node id="1371" x="-85.278140" y="35.025400" type="priority"/>
    <node id="1373" x="-85.278290" y="35.025450" type="priority"/>
    <node id="1375" x="-85.278970" y="35.025680" type="priority"/>
    <node id="1377" x="-85.279390" y="35.025840" type="priority"/>
    <node id="1379" x="-85.280100" y="35.026090" type="priority"/>
    <node id="1381" x="-85.280460" y="35.026210" type="priority"/>
    <node id="1383" x="-85.280960" y="35.026390" type="priority"/>
    <node id="1385" x="-85.281460" y="35.026570" type="priority"/>
    <node id="1387" x="-85.281720" y="35.026660" type="priority"/>
    <node id="1389" x="-85.282620" y="35.026980" type="priority"/>
    <node id="1391" x="-85.282840" y="35.027060" type="priority"/>
    <node id="1393" x="-85.283100" y="35.027150" type="priority"/>
    <node id="1395" x="-85.283600" y="35.027320" type="priority"/>
    <node id="1397" x="-85.284250" y="35.027550" type="priority"/>
    <node id="1399" x="-85.285070" y="35.027840" type="priority"/>
    <node id="140" x="-85.240790" y="35.128620" type="dead_end"/>
    <node id="1401" x="-85.285630" y="35.028050" type="priority"/>
    <node id="1403" x="-85.286090" y="35.028220" type="priority"/>
    <node id="1405" x="-85.286460" y="35.028350" type="priority"/>
    <node id="1407" x="-85.287110" y="35.028580" type="priority"/>
    <node id="1409" x="-85.288150" y="35.028970" type="priority"/>
    <node id="141" x="-85.242280" y="35.133390" type="priority"/>
    <node id="1411" x="-85.288510" y="35.029090" type="priority"/>
    <node id="1413" x="-85.290000" y="35.029630" type="priority"/>
    <node id="1415" x="-85.291630" y="35.030220" type="priority"/>
    <node id="1417" x="-85.292770" y="35.030660" type="priority"/>
    <node id="1419" x="-85.293270" y="35.030850" type="priority"/>
    <node id="1421" x="-85.294460" y="35.031260" type="priority"/>
    <node id="1423" x="-85.294940" y="35.031430" type="priority"/>
    <node id="1425" x="-85.296340" y="35.031960" type="priority"/>
    <node id="1427" x="-85.297170" y="35.032260" type="priority"/>
    <node id="1429" x="-85.297330" y="35.032330" type="priority"/>
    <node id="143" x="-85.242390" y="35.133270" type="priority"/>
    <node id="1431" x="-85.297740" y="35.032500" type="priority"/>
    <node id="1433" x="-85.298090" y="35.032640" type="priority"/>
    <node id="1435" x="-85.298690" y="35.032850" type="priority"/>
    <node id="1437" x="-85.298950" y="35.032960" type="priority"/>
    <node id="1439" x="-85.299670" y="35.033230" type="priority"/>
    <node id="1441" x="-85.300090" y="35.033390" type="priority"/>
    <node id="1443" x="-85.300390" y="35.033500" type="priority"/>
    <node id="1445" x="-85.301120" y="35.033790" type="priority"/>
    <node id="1447" x="-85.301340" y="35.033870" type="priority"/>
    <node id="1449" x="-85.301670" y="35.034000" type="priority"/>
    <node id="145" x="-85.242600" y="35.133140" type="priority"/>
    <node id="1451" x="-85.302550" y="35.034350" type="priority"/>
    <node id="1453" x="-85.303860" y="35.034850" type="priority"/>
    <node id="1455" x="-85.304410" y="35.035040" type="priority"/>
    <node id="1457" x="-85.305320" y="35.035380" type="priority"/>
    <node id="1459" x="-85.305910" y="35.035610" type="priority"/>
    <node id="1461" x="-85.306920" y="35.036000" type="priority"/>
    <node id="147" x="-85.242680" y="35.133070" type="priority"/>
    <node id="149" x="-85.242970" y="35.132780" type="priority"/>
    <node id="1491" x="-85.307760" y="35.039940" type="priority"/>
    <node id="15" x="-85.208230" y="35.060060" type="priority"/>
    <node id="1507" x="-85.309346" y="35.043744" type="priority"/>
    <node id="1509" x="-85.309350" y="35.043740" type="priority"/>
    <node id="151" x="-85.243060" y="35.132680" type="priority"/>
    <node id="1527" x="-85.312360" y="35.044330" type="priority"/>
    <node id="1541" x="-85.310370" y="35.045840" type="priority"/>
    <node id="1543" x="-85.310373" y="35.045910" type="priority"/>
    <node id="1547" x="-85.310390" y="35.046560" type="priority"/>
    <node id="155" x="-85.311840" y="35.053860" type="priority"/>
    <node id="157" x="-85.291641" y="35.085190" type="priority"/>
    <node id="1589" x="-85.309713" y="35.055184" type="priority"/>
    <node id="1601" x="-85.308530" y="35.062810" type="priority"/>
    <node id="1603" x="-85.308540" y="35.062940" type="priority"/>
    <node id="1605" x="-85.308570" y="35.063130" type="priority"/>
    <node id="1607" x="-85.308650" y="35.063470" type="priority"/>
    <node id="1609" x="-85.308690" y="35.063630" type="priority"/>
    <node id="161" x="-85.240770" y="35.128930" type="dead_end"/>
    <node id="1611" x="-85.308780" y="35.064010" type="priority"/>
    <node id="1613" x="-85.308920" y="35.064600" type="priority"/>
    <node id="1615" x="-85.308990" y="35.064980" type="priority"/>
    <node id="1617" x="-85.309040" y="35.065400" type="priority"/>
    <node id="1619" x="-85.309040" y="35.065520" type="priority"/>
    <node id="162" x="-85.305400" y="35.036780" type="dead_end"/>
    <node id="1621" x="-85.309100" y="35.066800" type="priority"/>
    <node id="1623" x="-85.309430" y="35.066820" type="priority"/>
    <node id="1625" x="-85.309430" y="35.066830" type="priority"/>
    <node id="1627" x="-85.309620" y="35.066840" type="priority"/>
    <node id="1629" x="-85.310125" y="35.066885" type="dead_end"/>
    <node id="1630" x="-85.310125" y="35.066885" type="priority"/>
    <node id="1631" x="-85.310300" y="35.066900" type="priority"/>
    <node id="1633" x="-85.308460" y="35.074420" type="dead_end"/>
    <node id="165" x="-85.305480" y="35.036790" type="dead_end"/>
    <node id="1657" x="-85.312000" y="35.067000" type="dead_end"/>
    <node id="1658" x="-85.308620" y="35.074430" type="dead_end"/>
    <node id="1659" x="-85.308960" y="35.068290" type="priority"/>
    <node id="166" x="-85.238290" y="35.099760" type="priority"/>
    <node id="1661" x="-85.308997" y="35.067895" type="priority"/>
    <node id="17" x="-85.208490" y="35.059870" type="priority"/>
    <node id="170" x="-85.155290" y="35.034570" type="dead_end"/>
    <node id="1723" x="-85.310700" y="35.050030" type="priority"/>
    <node id="173" x="-85.155240" y="35.034480" type="dead_end"/>
    <node id="1735" x="-85.310560" y="35.045890" type="priority"/>
    <node id="1749" x="-85.312430" y="35.044220" type="priority"/>
    <node id="1767" x="-85.309350" y="35.043720" type="priority"/>
    <node id="1769" x="-85.309345" y="35.043717" type="priority"/>
    <node id="178" x="-85.305840" y="35.060250" type="priority"/>
    <node id="1785" x="-85.307860" y="35.040130" type="priority"/>
    <node id="1787" x="-85.307903" y="35.040112" type="priority"/>
    <node id="1789" x="-85.307780" y="35.039900" type="priority"/>
    <node id="179" x="-85.305570" y="35.060640" type="priority"/>
    <node id="1791" x="-85.307750" y="35.039780" type="priority"/>
    <node id="1793" x="-85.307670" y="35.039630" type="priority"/>
    <node id="1795" x="-85.307610" y="35.039450" type="priority"/>
    <node id="1797" x="-85.307590" y="35.039310" type="priority"/>
    <node id="1799" x="-85.307580" y="35.038630" type="priority"/>
    <node id="1801" x="-85.307560" y="35.038580" type="priority"/>
    <node id="1803" x="-85.307500" y="35.038060" type="priority"/>
    <node id="1805" x="-85.307500" y="35.037860" type="priority"/>
    <node id="1807" x="-85.307450" y="35.037670" type="priority"/>
    <node id="1809" x="-85.307430" y="35.037040" type="priority"/>
    <node id="181" x="-85.305410" y="35.060880" type="priority"/>
    <node id="1811" x="-85.307340" y="35.036770" type="priority"/>
    <node id="1813" x="-85.307320" y="35.036610" type="priority"/>
    <node id="1815" x="-85.307320" y="35.036340" type="priority"/>
    <node id="1817" x="-85.307240" y="35.036150" type="priority"/>
    <node id="1819" x="-85.307070" y="35.036030" type="priority"/>
    <node id="1821" x="-85.306910" y="35.035960" type="priority"/>
    <node id="1823" x="-85.306300" y="35.035760" type="priority"/>
    <node id="1825" x="-85.305880" y="35.035590" type="priority"/>
    <node id="1827" x="-85.305490" y="35.035430" type="priority"/>
    <node id="1829" x="-85.305270" y="35.035290" type="priority"/>
    <node id="183" x="-85.305110" y="35.061330" type="priority"/>
    <node id="1831" x="-85.304860" y="35.035160" type="priority"/>
    <node id="1833" x="-85.304050" y="35.034830" type="priority"/>
    <node id="1835" x="-85.303320" y="35.034590" type="priority"/>
    <node id="1837" x="-85.302950" y="35.034440" type="priority"/>
    <node id="1839" x="-85.302710" y="35.034320" type="priority"/>
    <node id="1841" x="-85.301824" y="35.033991" type="priority"/>
    <node id="1843" x="-85.301460" y="35.033840" type="priority"/>
    <node id="1845" x="-85.300250" y="35.033390" type="priority"/>
    <node id="1847" x="-85.299850" y="35.033280" type="priority"/>
    <node id="1849" x="-85.299060" y="35.032950" type="priority"/>
    <node id="185" x="-85.305110" y="35.061340" type="priority"/>
    <node id="1851" x="-85.297450" y="35.032330" type="priority"/>
    <node id="1853" x="-85.296630" y="35.031990" type="priority"/>
    <node id="1855" x="-85.294890" y="35.031390" type="priority"/>
    <node id="1857" x="-85.293300" y="35.030790" type="priority"/>
    <node id="1859" x="-85.291842" y="35.030264" type="priority"/>
    <node id="1861" x="-85.290330" y="35.029720" type="priority"/>
    <node id="1863" x="-85.289770" y="35.029510" type="priority"/>
    <node id="1865" x="-85.289600" y="35.029430" type="priority"/>
    <node id="1867" x="-85.289360" y="35.029360" type="priority"/>
    <node id="1869" x="-85.288390" y="35.028990" type="priority"/>
    <node id="187" x="-85.305010" y="35.061480" type="priority"/>
    <node id="1871" x="-85.288340" y="35.028880" type="priority"/>
    <node id="1873" x="-85.287660" y="35.028570" type="priority"/>
    <node id="1875" x="-85.287470" y="35.028510" type="priority"/>
    <node id="1877" x="-85.286990" y="35.028440" type="priority"/>
    <node id="1879" x="-85.286770" y="35.028390" type="priority"/>
    <node id="1881" x="-85.286290" y="35.028200" type="priority"/>
    <node id="1883" x="-85.285720" y="35.028020" type="priority"/>
    <node id="1885" x="-85.285560" y="35.027950" type="priority"/>
    <node id="1887" x="-85.285150" y="35.027810" type="priority"/>
    <node id="1889" x="-85.284960" y="35.027760" type="priority"/>
    <node id="189" x="-85.304890" y="35.061640" type="priority"/>
    <node id="1891" x="-85.284230" y="35.027480" type="priority"/>
    <node id="1893" x="-85.283810" y="35.027370" type="priority"/>
    <node id="1895" x="-85.283070" y="35.027090" type="priority"/>
    <node id="1897" x="-85.281861" y="35.026672" type="priority"/>
    <node id="1899" x="-85.281190" y="35.026450" type="priority"/>
    <node id="19" x="-85.208640" y="35.059810" type="priority"/>
    <node id="1901" x="-85.280950" y="35.026350" type="priority"/>
    <node id="1903" x="-85.280290" y="35.026120" type="priority"/>
    <node id="1905" x="-85.279840" y="35.026000" type="priority"/>
    <node id="1907" x="-85.279680" y="35.025930" type="priority"/>
    <node id="1909" x="-85.278690" y="35.025590" type="priority"/>
    <node id="191" x="-85.304820" y="35.061740" type="priority"/>
    <node id="1911" x="-85.278350" y="35.025460" type="priority"/>
    <node id="1913" x="-85.278350" y="35.025430" type="priority"/>
    <node id="1915" x="-85.277930" y="35.025290" type="priority"/>
    <node id="1917" x="-85.277600" y="35.025160" type="priority"/>
    <node id="1919" x="-85.277390" y="35.025100" type="priority"/>
    <node id="1921" x="-85.276490" y="35.024760" type="priority"/>
    <node id="1923" x="-85.275980" y="35.024590" type="priority"/>
    <node id="1925" x="-85.274040" y="35.023850" type="priority"/>
    <node id="1927" x="-85.273390" y="35.023610" type="priority"/>
    <node id="1929" x="-85.273160" y="35.023540" type="priority"/>
    <node id="193" x="-85.305790" y="35.062150" type="priority"/>
    <node id="1931" x="-85.272670" y="35.023340" type="priority"/>
    <node id="1933" x="-85.272430" y="35.023270" type="priority"/>
    <node id="1935" x="-85.271851" y="35.023045" type="priority"/>
    <node id="1937" x="-85.271350" y="35.022870" type="priority"/>
    <node id="1939" x="-85.269800" y="35.022280" type="priority"/>
    <node id="1941" x="-85.269720" y="35.022160" type="priority"/>
    <node id="1943" x="-85.269940" y="35.021800" type="priority"/>
    <node id="1945" x="-85.270260" y="35.021380" type="priority"/>
    <node id="1947" x="-85.270560" y="35.020890" type="priority"/>
    <node id="1949" x="-85.270730" y="35.020640" type="priority"/>
    <node id="195" x="-85.306210" y="35.062290" type="priority"/>
    <node id="1951" x="-85.270860" y="35.020490" type="priority"/>
    <node id="1953" x="-85.271350" y="35.019750" type="priority"/>
    <node id="1955" x="-85.271420" y="35.019620" type="priority"/>
    <node id="1957" x="-85.271620" y="35.019330" type="priority"/>
    <node id="1959" x="-85.271640" y="35.019330" type="priority"/>
    <node id="1961" x="-85.272080" y="35.018510" type="priority"/>
    <node id="1963" x="-85.272180" y="35.018360" type="priority"/>
    <node id="1965" x="-85.272670" y="35.017380" type="priority"/>
    <node id="1967" x="-85.272850" y="35.017070" type="priority"/>
    <node id="1969" x="-85.272940" y="35.016920" type="priority"/>
    <node id="197" x="-85.306630" y="35.062390" type="priority"/>
    <node id="1971" x="-85.273270" y="35.016470" type="priority"/>
    <node id="1973" x="-85.273420" y="35.016300" type="priority"/>
    <node id="1975" x="-85.273480" y="35.016140" type="priority"/>
    <node id="1977" x="-85.273580" y="35.016000" type="priority"/>
    <node id="1979" x="-85.273629" y="35.015963" type="priority"/>
    <node id="1981" x="-85.273720" y="35.015900" type="priority"/>
    <node id="1983" x="-85.274210" y="35.016040" type="priority"/>
    <node id="1985" x="-85.274430" y="35.016140" type="priority"/>
    <node id="1987" x="-85.274630" y="35.016200" type="priority"/>
    <node id="1989" x="-85.274710" y="35.016250" type="priority"/>
    <node id="199" x="-85.307050" y="35.062450" type="priority"/>
    <node id="1991" x="-85.275870" y="35.016640" type="priority"/>
    <node id="1993" x="-85.276380" y="35.016790" type="priority"/>
    <node id="1995" x="-85.277610" y="35.017250" type="priority"/>
    <node id="1997" x="-85.278390" y="35.017520" type="priority"/>
    <node id="1999" x="-85.279460" y="35.017870" type="priority"/>
    <node id="2001" x="-85.279680" y="35.017900" type="priority"/>
    <node id="2003" x="-85.279870" y="35.017790" type="priority"/>
    <node id="2005" x="-85.280030" y="35.017530" type="priority"/>
    <node id="2007" x="-85.280140" y="35.017270" type="priority"/>
    <node id="2009" x="-85.280240" y="35.017100" type="priority"/>
    <node id="201" x="-85.307330" y="35.062490" type="priority"/>
    <node id="2011" x="-85.280410" y="35.016730" type="priority"/>
    <node id="2013" x="-85.280890" y="35.015880" type="priority"/>
    <node id="2015" x="-85.281180" y="35.015200" type="priority"/>
    <node id="2017" x="-85.281290" y="35.015030" type="priority"/>
    <node id="2019" x="-85.281488" y="35.014646" type="priority"/>
    <node id="2021" x="-85.283136" y="35.011505" type="priority"/>
    <node id="2023" x="-85.280864" y="35.002325" type="priority"/>
    <node id="2025" x="-85.281677" y="35.000865" type="priority"/>
    <node id="2027" x="-85.282460" y="34.999440" type="priority"/>
    <node id="2029" x="-85.282490" y="34.999270" type="priority"/>
    <node id="203" x="-85.307740" y="35.062550" type="priority"/>
    <node id="2031" x="-85.282490" y="34.999060" type="priority"/>
    <node id="2033" x="-85.282460" y="34.998910" type="priority"/>
    <node id="2035" x="-85.282490" y="34.998760" type="priority"/>
    <node id="2037" x="-85.282570" y="34.998590" type="priority"/>
    <node id="2039" x="-85.282730" y="34.998350" type="priority"/>
    <node id="2041" x="-85.282780" y="34.998200" type="priority"/>
    <node id="2043" x="-85.282860" y="34.998050" type="priority"/>
    <node id="2045" x="-85.283420" y="34.997090" type="priority"/>
    <node id="2047" x="-85.283500" y="34.996890" type="priority"/>
    <node id="2049" x="-85.283720" y="34.996480" type="priority"/>
    <node id="205" x="-85.308140" y="35.062600" type="priority"/>
    <node id="2051" x="-85.284160" y="34.995680" type="priority"/>
    <node id="2053" x="-85.284270" y="34.995510" type="priority"/>
    <node id="2055" x="-85.284320" y="34.995350" type="priority"/>
    <node id="2057" x="-85.285020" y="34.994130" type="priority"/>
    <node id="2059" x="-85.285400" y="34.993380" type="priority"/>
    <node id="2061" x="-85.285670" y="34.992930" type="priority"/>
    <node id="2063" x="-85.285817" y="34.992606" type="priority"/>
    <node id="2065" x="-85.286180" y="34.991900" type="priority"/>
    <node id="2067" x="-85.286340" y="34.991630" type="priority"/>
    <node id="2069" x="-85.286450" y="34.991370" type="priority"/>
    <node id="207" x="-85.308530" y="35.062660" type="priority"/>
    <node id="2071" x="-85.286780" y="34.990730" type="priority"/>
    <node id="2073" x="-85.286900" y="34.990550" type="priority"/>
    <node id="2075" x="-85.286980" y="34.990370" type="priority"/>
    <node id="2077" x="-85.287150" y="34.990060" type="priority"/>
    <node id="2079" x="-85.287310" y="34.989840" type="priority"/>
    <node id="2081" x="-85.287300" y="34.989690" type="priority"/>
    <node id="2083" x="-85.287360" y="34.989550" type="priority"/>
    <node id="2085" x="-85.287530" y="34.989220" type="priority"/>
    <node id="2087" x="-85.287660" y="34.989030" type="priority"/>
    <node id="2089" x="-85.287740" y="34.988830" type="priority"/>
    <node id="209" x="-85.308700" y="35.061620" type="priority"/>
    <node id="2091" x="-85.288120" y="34.988140" type="priority"/>
    <node id="2093" x="-85.288220" y="34.988020" type="priority"/>
    <node id="2095" x="-85.288300" y="34.987870" type="priority"/>
    <node id="2097" x="-85.288450" y="34.987710" type="priority"/>
    <node id="2099" x="-85.288630" y="34.987650" type="priority"/>
    <node id="21" x="-85.208780" y="35.059780" type="priority"/>
    <node id="2101" x="-85.288770" y="34.987570" type="priority"/>
    <node id="2103" x="-85.288720" y="34.987390" type="priority"/>
    <node id="2105" x="-85.288530" y="34.987080" type="priority"/>
    <node id="2107" x="-85.288450" y="34.986900" type="priority"/>
    <node id="2109" x="-85.288350" y="34.986790" type="priority"/>
    <node id="211" x="-85.309060" y="35.059750" type="priority"/>
    <node id="2111" x="-85.288160" y="34.986320" type="priority"/>
    <node id="2113" x="-85.288090" y="34.986050" type="priority"/>
    <node id="2115" x="-85.288030" y="34.985460" type="priority"/>
    <node id="2117" x="-85.288040" y="34.984870" type="priority"/>
    <node id="2120" x="-85.312010" y="35.066960" type="dead_end"/>
    <node id="213" x="-85.309750" y="35.056190" type="priority"/>
    <node id="215" x="-85.309730" y="35.055770" type="priority"/>
    <node id="217" x="-85.309730" y="35.055700" type="priority"/>
    <node id="219" x="-85.309700" y="35.054790" type="priority"/>
    <node id="221" x="-85.309830" y="35.054780" type="priority"/>
    <node id="223" x="-85.310190" y="35.054780" type="priority"/>
    <node id="225" x="-85.310660" y="35.054760" type="priority"/>
    <node id="227" x="-85.310840" y="35.054760" type="priority"/>
    <node id="229" x="-85.310810" y="35.054010" type="priority"/>
    <node id="23" x="-85.208950" y="35.059770" type="priority"/>
    <node id="231" x="-85.310810" y="35.053990" type="priority"/>
    <node id="233" x="-85.310800" y="35.053550" type="priority"/>
    <node id="235" x="-85.310790" y="35.053490" type="priority"/>
    <node id="237" x="-85.310790" y="35.053430" type="priority"/>
    <node id="239" x="-85.310760" y="35.052430" type="priority"/>
    <node id="241" x="-85.310750" y="35.052350" type="priority"/>
    <node id="243" x="-85.310750" y="35.052230" type="priority"/>
    <node id="245" x="-85.310750" y="35.052150" type="priority"/>
    <node id="247" x="-85.310710" y="35.050910" type="priority"/>
    <node id="249" x="-85.310690" y="35.049640" type="priority"/>
    <node id="25" x="-85.209040" y="35.059720" type="priority"/>
    <node id="251" x="-85.310680" y="35.049000" type="priority"/>
    <node id="253" x="-85.310670" y="35.048350" type="priority"/>
    <node id="255" x="-85.310620" y="35.047420" type="priority"/>
    <node id="257" x="-85.310600" y="35.047070" type="priority"/>
    <node id="259" x="-85.310590" y="35.046400" type="priority"/>