<?xml version="1.0" encoding="UTF-8"?>

<!-- generated on Wed Feb 19 11:30:05 2020 by Eclipse SUMO netconvert Version 1.5.0
<configuration xmlns:xsi="http://www.w3.org/2001/XMLSchema-instance" xsi:noNamespaceSchemaLocation="http://sumo.dlr.de/xsd/netconvertConfiguration.xsd">

    <input>
        <shapefile-prefix value="routes"/>
    </input>

    <output>
        <plain-output-prefix value="plain"/>
    </output>

    <projection>
        <proj.utm value="true"/>
        <proj.plain-geo value="true"/>
    </projection>

    <formats>
        <shapefile.use-defaults-on-failure value="true"/>
    </formats>

    <report>
        <aggregate-warnings value="5"/>
    </report>

</configuration>
-->

<connections version="1.3" xmlns:xsi="http://www.w3.org/2001/XMLSchema-instance" xsi:noNamespaceSchemaLocation="http://sumo.dlr.de/xsd/connections_file.xsd">
    <connection from="0" to="2" fromLane="0" toLane="0"/>
    <connection from="0" to="1" fromLane="0" toLane="0"/>

    <connection from="10" to="11" fromLane="0" toLane="0"/>
    <connection from="10" to="39" fromLane="0" toLane="0"/>

    <connection from="100" to="101" fromLane="0" toLane="0"/>

    <connection from="1000" to="1001" fromLane="0" toLane="0"/>

    <connection from="1001" to="1002" fromLane="0" toLane="0"/>

    <connection from="1002" to="1003" fromLane="0" toLane="0"/>

    <connection from="1003" to="1004" fromLane="0" toLane="0"/>

    <connection from="1004" to="1005" fromLane="0" toLane="0"/>

    <connection from="1005" to="1006" fromLane="0" toLane="0"/>

    <connection from="1006" to="1007" fromLane="0" toLane="0"/>

    <connection from="1007" to="1008" fromLane="0" toLane="0"/>

    <connection from="1008" to="1009" fromLane="0" toLane="0"/>

    <connection from="1009" to="1010" fromLane="0" toLane="0"/>
    <connection from="1009" to="1066" fromLane="0" toLane="0"/>

    <connection from="101" to="102" fromLane="0" toLane="0"/>

    <connection from="1010" to="1067" fromLane="0" toLane="0"/>
    <connection from="1010" to="1011" fromLane="0" toLane="0"/>

    <connection from="1011" to="1012" fromLane="0" toLane="0"/>
    <connection from="1011" to="1068" fromLane="0" toLane="0"/>

    <connection from="1012" to="1013" fromLane="0" toLane="0"/>

    <connection from="1013" to="1014" fromLane="0" toLane="0"/>

    <connection from="1014" to="1015" fromLane="0" toLane="0"/>

    <connection from="1015" to="1016" fromLane="0" toLane="0"/>

    <connection from="1016" to="1017" fromLane="0" toLane="0"/>

    <connection from="1017" to="1018" fromLane="0" toLane="0"/>

    <connection from="1018" to="1019" fromLane="0" toLane="0"/>

    <connection from="1019" to="1020" fromLane="0" toLane="0"/>

    <connection from="102" to="103" fromLane="0" toLane="0"/>

    <connection from="1020" to="1021" fromLane="0" toLane="0"/>

    <connection from="1021" to="1022" fromLane="0" toLane="0"/>

    <connection from="1022" to="1023" fromLane="0" toLane="0"/>

    <connection from="1023" to="1024" fromLane="0" toLane="0"/>

    <connection from="1024" to="1025" fromLane="0" toLane="0"/>

    <connection from="1025" to="1026" fromLane="0" toLane="0"/>

    <connection from="1026" to="1027" fromLane="0" toLane="0"/>

    <connection from="1027" to="1028" fromLane="0" toLane="0"/>

    <connection from="1028" to="1029" fromLane="0" toLane="0"/>

    <connection from="1029" to="1030" fromLane="0" toLane="0"/>

    <connection from="103" to="800" fromLane="0" toLane="0"/>
    <connection from="103" to="104" fromLane="0" toLane="0"/>
    <connection from="103" to="843" fromLane="0" toLane="0"/>
    <connection from="103" to="567" fromLane="0" toLane="0"/>

    <connection from="1030" to="1031" fromLane="0" toLane="0"/>

    <connection from="1031" to="1032" fromLane="0" toLane="0"/>

    <connection from="1032" to="1033" fromLane="0" toLane="0"/>

    <connection from="1033" to="1034" fromLane="0" toLane="0"/>

    <connection from="1034" to="1035" fromLane="0" toLane="0"/>

    <connection from="1035" to="1036" fromLane="0" toLane="0"/>

    <connection from="1036" to="1037" fromLane="0" toLane="0"/>

    <connection from="1037" to="1038" fromLane="0" toLane="0"/>

    <connection from="1038" to="1039" fromLane="0" toLane="0"/>

    <connection from="1039" to="1040" fromLane="0" toLane="0"/>

    <connection from="104" to="105" fromLane="0" toLane="0"/>
    <connection from="104" to="844" fromLane="0" toLane="0"/>
    <connection from="104" to="799" fromLane="0" toLane="0"/>
    <connection from="104" to="566" fromLane="0" toLane="0"/>

    <connection from="1040" to="1041" fromLane="0" toLane="0"/>

    <connection from="1041" to="1042" fromLane="0" toLane="0"/>

    <connection from="1042" to="1043" fromLane="0" toLane="0"/>

    <connection from="1043" to="1044" fromLane="0" toLane="0"/>

    <connection from="1044" to="1045" fromLane="0" toLane="0"/>

    <connection from="1045" to="1046" fromLane="0" toLane="0"/>

    <connection from="1046" to="1047" fromLane="0" toLane="0"/>

    <connection from="1047" to="1048" fromLane="0" toLane="0"/>

    <connection from="1048" to="1049" fromLane="0" toLane="0"/>

    <connection from="1049" to="1050" fromLane="0" toLane="0"/>

    <connection from="105" to="106" fromLane="0" toLane="0"/>

    <connection from="1050" to="1051" fromLane="0" toLane="0"/>

    <connection from="1051" to="1052" fromLane="0" toLane="0"/>

    <connection from="1052" to="1053" fromLane="0" toLane="0"/>

    <connection from="1053" to="1054" fromLane="0" toLane="0"/>

    <connection from="1054" to="1055" fromLane="0" toLane="0"/>

    <connection from="1055" to="1056" fromLane="0" toLane="0"/>

    <connection from="1056" to="1057" fromLane="0" toLane="0"/>

    <connection from="1057" to="1058" fromLane="0" toLane="0"/>

    <connection from="1058" to="1059" fromLane="0" toLane="0"/>

    <connection from="106" to="107" fromLane="0" toLane="0"/>
    <connection from="106" to="845" fromLane="0" toLane="0"/>
    <connection from="106" to="798" fromLane="0" toLane="0"/>
    <connection from="106" to="563" fromLane="0" toLane="0"/>

    <connection from="1060" to="1061" fromLane="0" toLane="0"/>
    <connection from="1060" to="830" fromLane="0" toLane="0"/>

    <connection from="1061" to="831" fromLane="0" toLane="0"/>
    <connection from="1061" to="1062" fromLane="0" toLane="0"/>

    <connection from="1062" to="811" fromLane="0" toLane="0"/>
    <connection from="1062" to="832" fromLane="0" toLane="0"/>

    <connection from="1063" to="868" fromLane="0" toLane="0"/>

    <connection from="1064" to="135" fromLane="0" toLane="0"/>
    <connection from="1064" to="872" fromLane="0" toLane="0"/>
    <connection from="1064" to="819" fromLane="0" toLane="0"/>
    <connection from="1064" to="534" fromLane="0" toLane="0"/>
    <connection from="1064" to="599" fromLane="0" toLane="0"/>
    <connection from="1064" to="767" fromLane="0" toLane="0"/>

    <connection from="1065" to="875" fromLane="0" toLane="0"/>

    <connection from="1066" to="1067" fromLane="0" toLane="0"/>
    <connection from="1066" to="1011" fromLane="0" toLane="0"/>

    <connection from="1067" to="1012" fromLane="0" toLane="0"/>
    <connection from="1067" to="1068" fromLane="0" toLane="0"/>

    <connection from="1068" to="1013" fromLane="0" toLane="0"/>

    <connection from="107" to="108" fromLane="0" toLane="0"/>
    <connection from="107" to="846" fromLane="0" toLane="0"/>
    <connection from="107" to="797" fromLane="0" toLane="0"/>
    <connection from="107" to="562" fromLane="0" toLane="0"/>

    <connection from="108" to="109" fromLane="0" toLane="0"/>
    <connection from="108" to="847" fromLane="0" toLane="0"/>
    <connection from="108" to="796" fromLane="0" toLane="0"/>
    <connection from="108" to="561" fromLane="0" toLane="0"/>

    <connection from="109" to="110" fromLane="0" toLane="0"/>
    <connection from="109" to="848" fromLane="0" toLane="0"/>
    <connection from="109" to="794" fromLane="0" toLane="0"/>
    <connection from="109" to="824" fromLane="0" toLane="0"/>
    <connection from="109" to="560" fromLane="0" toLane="0"/>

    <connection from="11" to="12" fromLane="0" toLane="0"/>
    <connection from="11" to="40" fromLane="0" toLane="0"/>

    <connection from="110" to="111" fromLane="0" toLane="0"/>
    <connection from="110" to="849" fromLane="0" toLane="0"/>
    <connection from="110" to="793" fromLane="0" toLane="0"/>
    <connection from="110" to="559" fromLane="0" toLane="0"/>

    <connection from="111" to="112" fromLane="0" toLane="0"/>
    <connection from="111" to="850" fromLane="0" toLane="0"/>
    <connection from="111" to="792" fromLane="0" toLane="0"/>
    <connection from="111" to="558" fromLane="0" toLane="0"/>

    <connection from="112" to="113" fromLane="0" toLane="0"/>
    <connection from="112" to="851" fromLane="0" toLane="0"/>
    <connection from="112" to="791" fromLane="0" toLane="0"/>
    <connection from="112" to="557" fromLane="0" toLane="0"/>

    <connection from="113" to="852" fromLane="0" toLane="0"/>
    <connection from="113" to="114" fromLane="0" toLane="0"/>

    <connection from="114" to="115" fromLane="0" toLane="0"/>

    <connection from="115" to="116" fromLane="0" toLane="0"/>
    <connection from="115" to="853" fromLane="0" toLane="0"/>

    <connection from="116" to="117" fromLane="0" toLane="0"/>
    <connection from="116" to="854" fromLane="0" toLane="0"/>

    <connection from="117" to="118" fromLane="0" toLane="0"/>
    <connection from="117" to="855" fromLane="0" toLane="0"/>

    <connection from="118" to="119" fromLane="0" toLane="0"/>
    <connection from="118" to="856" fromLane="0" toLane="0"/>

    <connection from="119" to="120" fromLane="0" toLane="0"/>
    <connection from="119" to="857" fromLane="0" toLane="0"/>

    <connection from="12" to="13" fromLane="0" toLane="0"/>
    <connection from="12" to="41" fromLane="0" toLane="0"/>

    <connection from="120" to="121" fromLane="0" toLane="0"/>
    <connection from="120" to="858" fromLane="0" toLane="0"/>

    <connection from="121" to="122" fromLane="0" toLane="0"/>
    <connection from="121" to="859" fromLane="0" toLane="0"/>

    <connection from="122" to="123" fromLane="0" toLane="0"/>
    <connection from="122" to="860" fromLane="0" toLane="0"/>

    <connection from="123" to="861" fromLane="0" toLane="0"/>
    <connection from="123" to="124" fromLane="0" toLane="0"/>

    <connection from="124" to="125" fromLane="0" toLane="0"/>
    <connection from="124" to="863" fromLane="0" toLane="0"/>

    <connection from="125" to="126" fromLane="0" toLane="0"/>
    <connection from="125" to="864" fromLane="0" toLane="0"/>

    <connection from="126" to="127" fromLane="0" toLane="0"/>
    <connection from="126" to="865" fromLane="0" toLane="0"/>

    <connection from="127" to="128" fromLane="0" toLane="0"/>

    <connection from="128" to="129" fromLane="0" toLane="0"/>
    <connection from="128" to="866" fromLane="0" toLane="0"/>

    <connection from="129" to="317" fromLane="0" toLane="0"/>
    <connection from="129" to="1063" fromLane="0" toLane="0"/>
    <connection from="129" to="867" fromLane="0" toLane="0"/>
    <connection from="129" to="130" fromLane="0" toLane="0"/>

    <connection from="13" to="42" fromLane="0" toLane="0"/>
    <connection from="13" to="14" fromLane="0" toLane="0"/>

    <connection from="131" to="132" fromLane="0" toLane="0"/>
    <connection from="131" to="869" fromLane="0" toLane="0"/>

    <connection from="132" to="133" fromLane="0" toLane="0"/>
    <connection from="132" to="870" fromLane="0" toLane="0"/>
    <connection from="132" to="769" fromLane="0" toLane="0"/>
    <connection from="132" to="536" fromLane="0" toLane="0"/>

    <connection from="133" to="134" fromLane="0" toLane="0"/>
    <connection from="133" to="319" fromLane="0" toLane="0"/>
    <connection from="133" to="871" fromLane="0" toLane="0"/>
    <connection from="133" to="1064" fromLane="0" toLane="0"/>
    <connection from="133" to="768" fromLane="0" toLane="0"/>
    <connection from="133" to="535" fromLane="0" toLane="0"/>

    <connection from="134" to="135" fromLane="0" toLane="0"/>
    <connection from="134" to="872" fromLane="0" toLane="0"/>
    <connection from="134" to="767" fromLane="0" toLane="0"/>
    <connection from="134" to="534" fromLane="0" toLane="0"/>
    <connection from="134" to="599" fromLane="0" toLane="0"/>
    <connection from="134" to="819" fromLane="0" toLane="0"/>

    <connection from="135" to="136" fromLane="0" toLane="0"/>
    <connection from="135" to="873" fromLane="0" toLane="0"/>
    <connection from="135" to="766" fromLane="0" toLane="0"/>
    <connection from="135" to="533" fromLane="0" toLane="0"/>

    <connection from="136" to="320" fromLane="0" toLane="0"/>
    <connection from="136" to="1065" fromLane="0" toLane="0"/>
    <connection from="136" to="874" fromLane="0" toLane="0"/>
    <connection from="136" to="137" fromLane="0" toLane="0"/>
    <connection from="136" to="765" fromLane="0" toLane="0"/>
    <connection from="136" to="532" fromLane="0" toLane="0"/>

    <connection from="137" to="138" fromLane="0" toLane="0"/>
    <connection from="137" to="321" fromLane="0" toLane="0"/>

    <connection from="138" to="139" fromLane="0" toLane="0"/>
    <connection from="138" to="876" fromLane="0" toLane="0"/>
    <connection from="138" to="530" fromLane="0" toLane="0"/>
    <connection from="138" to="763" fromLane="0" toLane="0"/>
    <connection from="138" to="597" fromLane="0" toLane="0"/>

    <connection from="139" to="140" fromLane="0" toLane="0"/>
    <connection from="139" to="877" fromLane="0" toLane="0"/>
    <connection from="139" to="762" fromLane="0" toLane="0"/>
    <connection from="139" to="529" fromLane="0" toLane="0"/>

    <connection from="14" to="15" fromLane="0" toLane="0"/>
    <connection from="14" to="44" fromLane="0" toLane="0"/>
    <connection from="14" to="60" fromLane="0" toLane="0"/>

    <connection from="140" to="141" fromLane="0" toLane="0"/>
    <connection from="140" to="878" fromLane="0" toLane="0"/>
    <connection from="140" to="761" fromLane="0" toLane="0"/>
    <connection from="140" to="528" fromLane="0" toLane="0"/>

    <connection from="141" to="142" fromLane="0" toLane="0"/>
    <connection from="141" to="879" fromLane="0" toLane="0"/>
    <connection from="141" to="527" fromLane="0" toLane="0"/>
    <connection from="141" to="760" fromLane="0" toLane="0"/>
    <connection from="141" to="596" fromLane="0" toLane="0"/>

    <connection from="142" to="143" fromLane="0" toLane="0"/>
    <connection from="142" to="880" fromLane="0" toLane="0"/>
    <connection from="142" to="759" fromLane="0" toLane="0"/>
    <connection from="142" to="526" fromLane="0" toLane="0"/>

    <connection from="143" to="144" fromLane="0" toLane="0"/>
    <connection from="143" to="881" fromLane="0" toLane="0"/>
    <connection from="143" to="758" fromLane="0" toLane="0"/>
    <connection from="143" to="525" fromLane="0" toLane="0"/>
    <connection from="143" to="595" fromLane="0" toLane="0"/>

    <connection from="144" to="322" fromLane="0" toLane="0"/>
    <connection from="144" to="882" fromLane="0" toLane="0"/>
    <connection from="144" to="145" fromLane="0" toLane="0"/>
    <connection from="144" to="757" fromLane="0" toLane="0"/>
    <connection from="144" to="524" fromLane="0" toLane="0"/>

    <connection from="145" to="323" fromLane="0" toLane="0"/>
    <connection from="145" to="146" fromLane="0" toLane="0"/>

    <connection from="146" to="147" fromLane="0" toLane="0"/>
    <connection from="146" to="883" fromLane="0" toLane="0"/>
    <connection from="146" to="324" fromLane="0" toLane="0"/>
    <connection from="146" to="523" fromLane="0" toLane="0"/>
    <connection from="146" to="756" fromLane="0" toLane="0"/>

    <connection from="147" to="148" fromLane="0" toLane="0"/>
    <connection from="147" to="886" fromLane="0" toLane="0"/>
    <connection from="147" to="753" fromLane="0" toLane="0"/>
    <connection from="147" to="522" fromLane="0" toLane="0"/>

    <connection from="148" to="149" fromLane="0" toLane="0"/>
    <connection from="148" to="887" fromLane="0" toLane="0"/>
    <connection from="148" to="752" fromLane="0" toLane="0"/>
    <connection from="148" to="521" fromLane="0" toLane="0"/>

    <connection from="149" to="150" fromLane="0" toLane="0"/>
    <connection from="149" to="888" fromLane="0" toLane="0"/>
    <connection from="149" to="519" fromLane="0" toLane="0"/>
    <connection from="149" to="593" fromLane="0" toLane="0"/>
    <connection from="149" to="751" fromLane="0" toLane="0"/>

    <connection from="15" to="16" fromLane="0" toLane="0"/>
    <connection from="15" to="45" fromLane="0" toLane="0"/>

    <connection from="150" to="151" fromLane="0" toLane="0"/>
    <connection from="150" to="889" fromLane="0" toLane="0"/>
    <connection from="150" to="750" fromLane="0" toLane="0"/>
    <connection from="150" to="518" fromLane="0" toLane="0"/>

    <connection from="151" to="325" fromLane="0" toLane="0"/>
    <connection from="151" to="152" fromLane="0" toLane="0"/>
    <connection from="151" to="890" fromLane="0" toLane="0"/>
    <connection from="151" to="749" fromLane="0" toLane="0"/>
    <connection from="151" to="517" fromLane="0" toLane="0"/>
    <connection from="151" to="592" fromLane="0" toLane="0"/>

    <connection from="152" to="153" fromLane="0" toLane="0"/>
    <connection from="152" to="891" fromLane="0" toLane="0"/>
    <connection from="152" to="516" fromLane="0" toLane="0"/>
    <connection from="152" to="748" fromLane="0" toLane="0"/>

    <connection from="153" to="892" fromLane="0" toLane="0"/>
    <connection from="153" to="154" fromLane="0" toLane="0"/>
    <connection from="153" to="747" fromLane="0" toLane="0"/>
    <connection from="153" to="515" fromLane="0" toLane="0"/>

    <connection from="154" to="155" fromLane="0" toLane="0"/>
    <connection from="154" to="745" fromLane="0" toLane="0"/>
    <connection from="154" to="588" fromLane="0" toLane="0"/>
    <connection from="154" to="513" fromLane="0" toLane="0"/>
    <connection from="154" to="591" fromLane="0" toLane="0"/>

    <connection from="155" to="156" fromLane="0" toLane="0"/>
    <connection from="155" to="744" fromLane="0" toLane="0"/>
    <connection from="155" to="512" fromLane="0" toLane="0"/>

    <connection from="156" to="157" fromLane="0" toLane="0"/>
    <connection from="156" to="743" fromLane="0" toLane="0"/>
    <connection from="156" to="511" fromLane="0" toLane="0"/>

    <connection from="157" to="158" fromLane="0" toLane="0"/>
    <connection from="157" to="742" fromLane="0" toLane="0"/>
    <connection from="157" to="510" fromLane="0" toLane="0"/>

    <connection from="158" to="159" fromLane="0" toLane="0"/>
    <connection from="158" to="741" fromLane="0" toLane="0"/>
    <connection from="158" to="509" fromLane="0" toLane="0"/>

    <connection from="159" to="160" fromLane="0" toLane="0"/>
    <connection from="159" to="740" fromLane="0" toLane="0"/>
    <connection from="159" to="508" fromLane="0" toLane="0"/>

    <connection from="16" to="17" fromLane="0" toLane="0"/>
    <connection from="16" to="46" fromLane="0" toLane="0"/>

    <connection from="160" to="161" fromLane="0" toLane="0"/>
    <connection from="160" to="739" fromLane="0" toLane="0"/>
    <connection from="160" to="507" fromLane="0" toLane="0"/>

    <connection from="161" to="162" fromLane="0" toLane="0"/>
    <connection from="161" to="738" fromLane="0" toLane="0"/>
    <connection from="161" to="506" fromLane="0" toLane="0"/>

    <connection from="162" to="163" fromLane="0" toLane="0"/>
    <connection from="162" to="590" fromLane="0" toLane="0"/>
    <connection from="162" to="737" fromLane="0" toLane="0"/>
    <connection from="162" to="505" fromLane="0" toLane="0"/>

    <connection from="163" to="164" fromLane="0" toLane="0"/>
    <connection from="163" to="736" fromLane="0" toLane="0"/>
    <connection from="163" to="504" fromLane="0" toLane="0"/>

    <connection from="164" to="165" fromLane="0" toLane="0"/>
    <connection from="164" to="735" fromLane="0" toLane="0"/>
    <connection from="164" to="503" fromLane="0" toLane="0"/>

    <connection from="165" to="166" fromLane="0" toLane="0"/>
    <connection from="165" to="734" fromLane="0" toLane="0"/>
    <connection from="165" to="502" fromLane="0" toLane="0"/>

    <connection from="166" to="167" fromLane="0" toLane="0"/>
    <connection from="166" to="733" fromLane="0" toLane="0"/>
    <connection from="166" to="501" fromLane="0" toLane="0"/>

    <connection from="167" to="168" fromLane="0" toLane="0"/>
    <connection from="167" to="732" fromLane="0" toLane="0"/>
    <connection from="167" to="500" fromLane="0" toLane="0"/>

    <connection from="168" to="326" fromLane="0" toLane="0"/>
    <connection from="168" to="169" fromLane="0" toLane="0"/>

    <connection from="169" to="170" fromLane="0" toLane="0"/>
    <connection from="169" to="327" fromLane="0" toLane="0"/>

    <connection from="17" to="18" fromLane="0" toLane="0"/>
    <connection from="17" to="47" fromLane="0" toLane="0"/>

    <connection from="170" to="171" fromLane="0" toLane="0"/>

    <connection from="171" to="172" fromLane="0" toLane="0"/>

    <connection from="172" to="173" fromLane="0" toLane="0"/>

    <connection from="173" to="174" fromLane="0" toLane="0"/>

    <connection from="174" to="175" fromLane="0" toLane="0"/>

    <connection from="175" to="176" fromLane="0" toLane="0"/>

    <connection from="176" to="177" fromLane="0" toLane="0"/>

    <connection from="177" to="178" fromLane="0" toLane="0"/>

    <connection from="178" to="179" fromLane="0" toLane="0"/>

    <connection from="179" to="180" fromLane="0" toLane="0"/>

    <connection from="18" to="19" fromLane="0" toLane="0"/>
    <connection from="18" to="48" fromLane="0" toLane="0"/>

    <connection from="180" to="181" fromLane="0" toLane="0"/>

    <connection from="181" to="182" fromLane="0" toLane="0"/>

    <connection from="182" to="183" fromLane="0" toLane="0"/>

    <connection from="183" to="184" fromLane="0" toLane="0"/>

    <connection from="184" to="185" fromLane="0" toLane="0"/>

    <connection from="185" to="186" fromLane="0" toLane="0"/>
    <connection from="185" to="480" fromLane="0" toLane="0"/>

    <connection from="186" to="187" fromLane="0" toLane="0"/>
    <connection from="186" to="587" fromLane="0" toLane="0"/>
    <connection from="186" to="479" fromLane="0" toLane="0"/>

    <connection from="187" to="328" fromLane="0" toLane="0"/>
    <connection from="187" to="188" fromLane="0" toLane="0"/>
    <connection from="187" to="478" fromLane="0" toLane="0"/>

    <connection from="188" to="189" fromLane="0" toLane="0"/>
    <connection from="188" to="477" fromLane="0" toLane="0"/>
    <connection from="188" to="586" fromLane="0" toLane="0"/>

    <connection from="189" to="190" fromLane="0" toLane="0"/>

    <connection from="19" to="20" fromLane="0" toLane="0"/>
    <connection from="19" to="49" fromLane="0" toLane="0"/>

    <connection from="190" to="191" fromLane="0" toLane="0"/>

    <connection from="191" to="192" fromLane="0" toLane="0"/>

    <connection from="192" to="193" fromLane="0" toLane="0"/>

    <connection from="193" to="194" fromLane="0" toLane="0"/>

    <connection from="194" to="195" fromLane="0" toLane="0"/>

    <connection from="195" to="196" fromLane="0" toLane="0"/>

    <connection from="196" to="197" fromLane="0" toLane="0"/>

    <connection from="197" to="198" fromLane="0" toLane="0"/>

    <connection from="198" to="199" fromLane="0" toLane="0"/>

    <connection from="199" to="200" fromLane="0" toLane="0"/>

    <connection from="20" to="21" fromLane="0" toLane="0"/>
    <connection from="20" to="50" fromLane="0" toLane="0"/>

    <connection from="200" to="329" fromLane="0" toLane="0"/>
    <connection from="200" to="201" fromLane="0" toLane="0"/>
    <connection from="200" to="465" fromLane="0" toLane="0"/>

    <connection from="201" to="202" fromLane="0" toLane="0"/>
    <connection from="201" to="585" fromLane="0" toLane="0"/>
    <connection from="201" to="464" fromLane="0" toLane="0"/>

    <connection from="202" to="203" fromLane="0" toLane="0"/>

    <connection from="203" to="204" fromLane="0" toLane="0"/>
    <connection from="203" to="462" fromLane="0" toLane="0"/>

    <connection from="204" to="205" fromLane="0" toLane="0"/>
    <connection from="204" to="584" fromLane="0" toLane="0"/>
    <connection from="204" to="461" fromLane="0" toLane="0"/>

    <connection from="205" to="206" fromLane="0" toLane="0"/>

    <connection from="206" to="207" fromLane="0" toLane="0"/>

    <connection from="207" to="208" fromLane="0" toLane="0"/>

    <connection from="208" to="209" fromLane="0" toLane="0"/>

    <connection from="209" to="210" fromLane="0" toLane="0"/>

    <connection from="21" to="22" fromLane="0" toLane="0"/>
    <connection from="21" to="51" fromLane="0" toLane="0"/>

    <connection from="210" to="211" fromLane="0" toLane="0"/>

    <connection from="211" to="212" fromLane="0" toLane="0"/>

    <connection from="212" to="213" fromLane="0" toLane="0"/>

    <connection from="213" to="214" fromLane="0" toLane="0"/>

    <connection from="214" to="215" fromLane="0" toLane="0"/>

    <connection from="215" to="216" fromLane="0" toLane="0"/>

    <connection from="216" to="217" fromLane="0" toLane="0"/>

    <connection from="217" to="218" fromLane="0" toLane="0"/>

    <connection from="218" to="219" fromLane="0" toLane="0"/>

    <connection from="219" to="220" fromLane="0" toLane="0"/>

    <connection from="22" to="23" fromLane="0" toLane="0"/>
    <connection from="22" to="52" fromLane="0" toLane="0"/>

    <connection from="220" to="221" fromLane="0" toLane="0"/>

    <connection from="221" to="222" fromLane="0" toLane="0"/>

    <connection from="222" to="223" fromLane="0" toLane="0"/>

    <connection from="223" to="224" fromLane="0" toLane="0"/>

    <connection from="224" to="225" fromLane="0" toLane="0"/>

    <connection from="225" to="226" fromLane="0" toLane="0"/>

    <connection from="226" to="227" fromLane="0" toLane="0"/>

    <connection from="227" to="228" fromLane="0" toLane="0"/>

    <connection from="228" to="229" fromLane="0" toLane="0"/>

    <connection from="229" to="230" fromLane="0" toLane="0"/>

    <connection from="23" to="24" fromLane="0" toLane="0"/>
    <connection from="23" to="53" fromLane="0" toLane="0"/>

    <connection from="230" to="231" fromLane="0" toLane="0"/>

    <connection from="231" to="232" fromLane="0" toLane="0"/>

    <connection from="232" to="233" fromLane="0" toLane="0"/>

    <connection from="233" to="234" fromLane="0" toLane="0"/>

    <connection from="234" to="235" fromLane="0" toLane="0"/>
    <connection from="234" to="431" fromLane="0" toLane="0"/>

    <connection from="235" to="236" fromLane="0" toLane="0"/>

    <connection from="236" to="237" fromLane="0" toLane="0"/>

    <connection from="237" to="238" fromLane="0" toLane="0"/>

    <connection from="238" to="239" fromLane="0" toLane="0"/>

    <connection from="239" to="240" fromLane="0" toLane="0"/>

    <connection from="24" to="25" fromLane="0" toLane="0"/>
    <connection from="24" to="54" fromLane="0" toLane="0"/>

    <connection from="240" to="241" fromLane="0" toLane="0"/>

    <connection from="241" to="242" fromLane="0" toLane="0"/>

    <connection from="242" to="243" fromLane="0" toLane="0"/>

    <connection from="243" to="279" fromLane="0" toLane="0"/>
    <connection from="243" to="244" fromLane="0" toLane="0"/>
    <connection from="243" to="386" fromLane="0" toLane="0"/>
    <connection from="243" to="421" fromLane="0" toLane="0"/>

    <connection from="244" to="245" fromLane="0" toLane="0"/>

    <connection from="245" to="246" fromLane="0" toLane="0"/>
    <connection from="245" to="387" fromLane="0" toLane="0"/>
    <connection from="245" to="278" fromLane="0" toLane="0"/>
    <connection from="245" to="419" fromLane="0" toLane="0"/>

    <connection from="246" to="247" fromLane="0" toLane="0"/>
    <connection from="246" to="388" fromLane="0" toLane="0"/>

    <connection from="247" to="248" fromLane="0" toLane="0"/>
    <connection from="247" to="389" fromLane="0" toLane="0"/>

    <connection from="248" to="249" fromLane="0" toLane="0"/>
    <connection from="248" to="390" fromLane="0" toLane="0"/>

    <connection from="249" to="250" fromLane="0" toLane="0"/>
    <connection from="249" to="392" fromLane="0" toLane="0"/>

    <connection from="25" to="26" fromLane="0" toLane="0"/>
    <connection from="25" to="55" fromLane="0" toLane="0"/>

    <connection from="250" to="393" fromLane="0" toLane="0"/>
    <connection from="250" to="251" fromLane="0" toLane="0"/>

    <connection from="251" to="252" fromLane="0" toLane="0"/>

    <connection from="252" to="253" fromLane="0" toLane="0"/>

    <connection from="253" to="254" fromLane="0" toLane="0"/>
    <connection from="253" to="394" fromLane="0" toLane="0"/>

    <connection from="254" to="255" fromLane="0" toLane="0"/>
    <connection from="254" to="395" fromLane="0" toLane="0"/>

    <connection from="255" to="396" fromLane="0" toLane="0"/>
    <connection from="255" to="256" fromLane="0" toLane="0"/>

    <connection from="256" to="257" fromLane="0" toLane="0"/>

    <connection from="257" to="258" fromLane="0" toLane="0"/>
    <connection from="257" to="397" fromLane="0" toLane="0"/>

    <connection from="258" to="259" fromLane="0" toLane="0"/>
    <connection from="258" to="398" fromLane="0" toLane="0"/>

    <connection from="259" to="260" fromLane="0" toLane="0"/>
    <connection from="259" to="399" fromLane="0" toLane="0"/>

    <connection from="26" to="27" fromLane="0" toLane="0"/>
    <connection from="26" to="56" fromLane="0" toLane="0"/>
