<?xml version="1.0" encoding="UTF-8"?>

<!-- generated on Thu Feb 27 14:40:09 2020 by Eclipse SUMO polyconvert Version 1.5.0
<configuration xmlns:xsi="http://www.w3.org/2001/XMLSchema-instance" xsi:noNamespaceSchemaLocation="http://sumo.dlr.de/xsd/polyconvertConfiguration.xsd">

    <input>
        <shapefile-prefixes value="TAZ"/>
    </input>

    <output>
        <output-file value="polytrial.add.xml"/>
    </output>

    <projection>
        <proj.scale value="1"/>
        <proj.utm value="true"/>
    </projection>

</configuration>
-->

<additional xmlns:xsi="http://www.w3.org/2001/XMLSchema-instance" xsi:noNamespaceSchemaLocation="http://sumo.dlr.de/xsd/additional_file.xsd">
    <location netOffset="0.00,0.00" convBoundary="639135.06,3872223.53,681550.04,3900906.84" origBoundary="-85.475593,34.982924,-85.008351,35.238393" projParameter="+proj=utm +zone=16 +ellps=WGS84 +datum=WGS84 +units=m +no_defs"/>

    <poly id="0" type="unknown" color="51,128,255" fill="1" layer="-1.00" shape="664793.539939,3882748.466839 664897.544643,3882727.275113 664903.402655,3882726.160968 664957.956356,3882715.722842 664995.811805,3882710.640523 665006.599876,3882709.283078 665030.186150,3882706.382710 665032.925704,3882706.210543 665085.614293,3882703.062242 665125.827057,3882703.792809 665144.595188,3882705.021507 665181.764586,3882707.583210 665186.135396,3882707.995529 665190.781872,3882708.301903 665283.232249,3882715.641414 665587.632430,3882739.933783 665681.537289,3882747.525895 665685.634586,3882747.933371 665689.004387,3882748.216725 665713.140209,3882750.210222 665785.547474,3882756.190897 665809.589975,3882758.293808 665858.511933,3882761.627528 665885.020494,3882763.553731 665934.185527,3882768.556580 666005.054618,3882773.845178 666053.879209,3882777.511055 666102.515235,3882781.506527 666224.923927,3882791.622485 666248.149734,3882793.489710 666265.819326,3882794.922560 666296.694537,3882797.484659 666301.249691,3882797.789934 666305.620520,3882798.202697 666314.637689,3882798.922512 666319.008433,3882799.335379 666356.716391,3882802.355614 666469.659821,3882811.302998 666507.274411,3882814.433111 666527.221564,3882816.019064 666586.789426,3882820.772271 666606.643254,3882822.467747 666614.385861,3882823.053536 666637.342063,3882824.694901 666644.991444,3882825.389965 666671.132988,3882827.422706 666690.988913,3882829.007448 666749.280018,3882833.738309 666775.326353,3882835.991524 666775.823748,3882823.795718 666767.045232,3882780.251498 666764.596213,3882769.554956 666756.216060,3882734.117700 666741.658374,3882687.360719 666725.026343,3882629.359426 666718.271878,3882609.707575 666704.780439,3882579.391521 666678.054495,3882519.651778 666655.338208,3882465.089586 666642.055137,3882433.335106 666604.068815,3882350.865576 666584.141500,3882303.344875 666561.239605,3882248.890556 666539.952092,3882200.901222 666537.583466,3882195.753904 666487.132214,3882066.566883 666481.711968,3882053.707918 666460.883561,3882005.505323 666454.685031,3881990.302087 666451.710408,3881983.368457 666434.147998,3881946.099234 666427.118604,3881931.435605 666422.934177,3881920.818392 666410.281595,3881889.408686 666406.003979,3881878.900737 666289.033340,3881914.928446 666219.462241,3881938.065808 666162.016198,3881956.654380 666109.985262,3881973.456055 666088.427187,3881980.052242 666058.059914,3881989.483235 666008.147093,3882005.214578 665955.756106,3882021.788612 665819.550135,3882067.345818 665688.075216,3882108.664044 665636.435191,3882124.143957 665569.844266,3882144.122922 665396.785519,3882194.895533 665351.809103,3882205.172565 665293.952823,3882216.436023 665231.006106,3882226.719737 665174.134576,3882234.007546 665139.030826,3882238.140704 665128.440682,3882238.613953 665093.375340,3882240.639877 665038.963636,3882243.091242 664983.313511,3882243.412448 664926.486018,3882243.268698 664876.179278,3882240.691749 664800.803381,3882237.216680 664749.090581,3882236.723045 664726.021516,3882236.193979 664649.152329,3882234.579292 664575.314486,3882231.799706 664526.643165,3882229.587083 664501.602035,3882227.136709 664454.794547,3882222.739250 664443.881827,3882220.877546 664441.953678,3882226.612164 664429.607199,3882263.668898 664333.404656,3882554.400009 664297.810807,3882656.387549 664286.233955,3882686.246402 664261.108548,3882744.042325 664228.135524,3882812.126104 664219.091232,3882828.050727 664207.677163,3882848.925432 664195.509592,3882871.118026 664213.455714,3882867.337068 664228.832724,3882864.397276 664278.549893,3882853.978816 664369.288053,3882834.871380 664398.860888,3882828.749154 664414.775051,3882826.374276 664461.737056,3882817.016326 664487.638563,3882812.159435 664493.742998,3882807.498941 664519.642548,3882802.752962 664534.648931,3882800.139940 664576.191252,3882792.903502 664617.204598,3882784.659246 664626.999554,3882782.728579 664659.217086,3882776.655091 664673.968089,3882773.038945 664793.539939,3882748.466839"/>
    <poly id="1" type="unknown" color="51,128,255" fill="1" layer="-1.00" shape="663736.170588,3882961.688524 663731.775809,3882962.607954 663703.535801,3882970.753444 663678.740790,3882980.070545 663667.903378,3882984.202481 663628.646373,3883006.462670 663605.386968,3883021.688150 663598.079769,3883027.326071 663585.965187,3883036.538942 663569.368229,3883051.551478 663550.972919,3883070.193264 663535.513416,3883087.889204 663529.627349,3883095.660939 663488.995724,3883148.741567 663462.660264,3883182.884825 663453.971037,3883194.378423 663349.703718,3883332.192066 663314.856782,3883378.165462 663295.982366,3883403.234313 663276.919629,3883428.632585 663242.578156,3883482.049137 663235.917298,3883492.358934 663226.928623,3883510.393614 663221.407239,3883523.275805 663212.099897,3883559.057015 663229.349703,3883563.472128 663244.690686,3883567.520106 663255.134076,3883570.037760 663257.677077,3883570.638241 663296.544942,3883579.991022 663296.725309,3883580.105221 663304.304820,3883579.575714 663309.666262,3883580.670700 663329.805676,3883586.691252 663374.708353,3883600.258086 663389.940170,3883605.302968 663409.885154,3883611.985951 663424.105974,3883617.456537 663466.583989,3883633.975874 663468.575808,3883634.788414 663480.909814,3883638.671741 663508.324376,3883635.725615 663521.807686,3883641.626815 663532.141845,3883629.940987 663567.599920,3883595.629326 663605.860204,3883552.603016 663612.334399,3883547.615863 663776.433445,3883364.394418 663874.308353,3883252.654810 664012.835327,3883092.054076 664069.025305,3883036.260858 664117.994451,3882971.239312 664181.219874,3882889.610790 664195.509592,3882871.118026 664207.677163,3882848.925432 664219.091232,3882828.050727 664228.135524,3882812.126104 664261.108548,3882744.042325 664286.233955,3882686.246402 664297.810807,3882656.387549 664333.404656,3882554.400009 664429.607199,3882263.668898 664441.953678,3882226.612164 664443.881827,3882220.877546 664427.149049,3882218.022908 664425.117676,3882224.421408 664424.345987,3882226.737460 664415.659400,3882253.098019 664412.763159,3882261.921746 664365.146269,3882251.851558 664358.596679,3882250.845461 664295.913279,3882241.612689 664222.747037,3882231.969036 664212.780222,3882228.238423 664194.543272,3882222.805216 664171.656439,3882202.087478 664147.278451,3882193.214829 664116.411998,3882185.001795 664001.840370,3882164.737641 663989.837265,3882162.634902 663905.783315,3882149.690720 663838.577410,3882138.271525 663758.301082,3882128.281609 663701.371476,3882118.601888 663661.030550,3882109.665024 663627.901551,3882100.414335 663602.610410,3882096.630481 663563.951962,3882090.498168 663561.313451,3882090.117819 663511.294027,3882081.673127 663470.258575,3882075.831331 663417.792854,3882066.455512 663414.187073,3882064.060791 663403.365735,3882057.098178 663399.666758,3882054.812644 663363.015839,3882053.710053 663343.584114,3882053.804676 663316.121535,3882054.087818 663272.922269,3882056.973246 663256.826783,3882059.235961 663236.800188,3882061.982992 663217.659507,3882066.188313 663184.314616,3882074.021953 663176.612726,3882076.213683 663145.341433,3882085.416069 663122.210041,3882093.433349 663127.843533,3882099.747730 663142.932715,3882112.888932 663148.889535,3882116.435310 663163.594361,3882125.575405 663191.295531,3882137.389797 663242.176557,3882153.725747 663244.533507,3882154.544675 663272.844963,3882167.923584 663291.601360,3882180.021456 663300.604718,3882186.618408 663303.304593,3882188.664039 663347.177420,3882224.402226 663364.656384,3882241.581027 663374.097140,3882254.288256 663375.599582,3882256.978130 663384.151858,3882273.441841 663391.693001,3882290.331113 663437.876216,3882400.449066 663472.682772,3882483.734286 663489.145542,3882521.865094 663502.626778,3882543.188473 663508.168609,3882549.501474 663512.103007,3882553.899388 663606.717929,3882638.705300 663617.598972,3882652.437275 663623.722984,3882661.867540 663630.738232,3882677.527164 663640.381119,3882699.225502 663676.454378,3882787.971122 663690.063753,3882822.389505 663705.499957,3882861.722748 663726.910600,3882913.701250 663731.807073,3882925.439496 663745.782662,3882959.753633 663742.129366,3882960.020676 663736.170588,3882961.688524"/>
    <poly id="10" type="unknown" color="51,128,255" fill="1" layer="-1.00" shape="657827.532879,3878739.310321 657819.547038,3878720.976363 657814.279482,3878709.013563 657810.153624,3878699.622479 657806.928408,3878690.912633 657796.800430,3878664.553355 657792.849463,3878645.069014 657787.353453,3878625.225029 657784.341410,3878614.743747 657765.151736,3878568.922532 657757.351983,3878550.369968 657754.111273,3878542.547501 657744.113499,3878519.186184 657740.779615,3878511.472961 657739.814545,3878509.237280 657736.220421,3878500.742979 657722.360477,3878468.549892 657717.708167,3878457.929261 657709.906287,3878439.487667 657686.224746,3878384.269310 657678.329496,3878365.937087 657670.348828,3878347.270535 657657.797205,3878318.539674 657646.031998,3878291.819404 657637.773653,3878273.369985 657612.583395,3878284.139422 657536.828615,3878316.555899 657511.545459,3878327.434848 657486.078065,3878338.421728 657409.493564,3878371.379524 657383.935115,3878382.365103 657356.721330,3878394.098695 657274.800727,3878429.628072 657247.402858,3878441.469848 657222.120426,3878452.349578 657146.273503,3878484.989478 657120.991323,3878495.869481 657095.619891,3878506.637158 657019.410997,3878539.160868 656993.946676,3878550.038066 656968.482417,3878560.915433 656891.993142,3878593.879037 656887.395578,3878595.907765 656866.266927,3878604.086448 656843.819154,3878614.683290 656775.512703,3878644.127646 656752.711697,3878654.052905 656727.339271,3878664.932499 656651.129239,3878697.680944 656644.694049,3878700.454820 656625.662022,3878708.781082 656633.467770,3878727.110768 656656.884653,3878782.099671 656664.597132,3878800.538738 656665.393258,3878801.994721 656667.776068,3878806.695532 656668.479057,3878808.260864 656671.393940,3878813.858454 656676.598403,3878824.266105 656680.417728,3878830.322979 656683.703227,3878835.594098 656695.974708,3878854.222553 656712.797127,3878878.809666 656719.825919,3878889.248767 656733.528104,3878909.566205 656746.291231,3878931.420721 656751.856611,3878942.056547 656785.908396,3879020.528039 656807.319195,3879070.046616 656822.839831,3879106.593781 656842.389978,3879152.862884 656870.322635,3879215.696700 656886.395801,3879251.920677 656897.418294,3879247.672860 656920.381433,3879238.860243 656930.037631,3879234.478047 656940.794239,3879229.781885 656943.369407,3879228.605830 656965.707402,3879219.005973 657040.441602,3879187.011394 657065.261875,3879176.345092 657077.761341,3879171.124510 657114.984248,3879155.568857 657127.390636,3879150.457685 657139.981400,3879145.238662 657177.386973,3879129.686508 657189.884659,3879124.576895 657202.386190,3879119.245560 657239.615374,3879103.357746 657252.023828,3879098.135721 657255.425752,3879096.641282 657270.500618,3879090.244987 657275.280482,3879088.219610 657325.935192,3879066.351070 657344.320975,3879058.458906 657357.835745,3879052.590535 657398.100577,3879035.313458 657411.522277,3879029.554505 657425.772604,3879023.366098 657468.521785,3879004.911924 657482.770273,3878998.834523 657496.102781,3878992.963193 657535.824658,3878975.455396 657549.064092,3878969.693481 657562.031792,3878963.815927 657579.319471,3878956.127008 657601.018455,3878946.628529 657613.980460,3878941.083805 657638.522697,3878930.747041 657675.382818,3878915.187297 657693.582861,3878907.514495 657712.142152,3878900.180712 657736.762387,3878890.622223 657762.966201,3878879.205055 657841.574038,3878845.176029 657867.684893,3878833.868491 657859.710853,3878814.869074 657835.600213,3878758.200366 657827.532879,3878739.310321"/>
    <poly id="100" type="unknown" color="51,128,255" fill="1" layer="-1.00" shape="657769.552368,3874215.874294 657774.886228,3874213.636742 657778.185385,3874212.917194 657804.479128,3874207.603237 657810.341431,3874206.484274 657813.013129,3874205.088261 657823.178579,3874224.347135 657832.395904,3874261.452073 657838.701058,3874271.657504 657850.741668,3874288.064242 657860.458266,3874306.871586 657865.591330,3874321.494617 657865.563479,3874328.372861 657865.509684,3874331.478386 657863.481640,3874337.878173 657851.862050,3874360.421065 657849.304664,3874371.027663 657850.047332,3874375.589360 657852.892899,3874379.965578 657858.488023,3874383.723713 657863.830465,3874386.257103 657870.831062,3874387.931604 657886.074408,3874388.084733 657893.313269,3874386.545970 657908.489473,3874380.041150 657954.152623,3874352.762919 658001.129354,3874328.725089 658023.847339,3874319.022847 658136.169598,3874269.935589 658179.037137,3874251.263788 658231.466077,3874228.764001 658246.532191,3874223.367329 658259.223484,3874218.040394 658297.297459,3874202.059492 658309.895614,3874196.841958 658325.439392,3874190.233234 658371.791432,3874170.735216 658387.242102,3874164.236026 658418.788209,3874150.915873 658479.210889,3874125.560889 658513.159239,3874110.618634 658544.528973,3874096.963073 658622.362553,3874062.703236 658665.785590,3874043.710434 658676.531759,3874040.014380 658696.039856,3874036.470897 658743.105698,3874033.740249 658760.679774,3874031.161690 658793.802246,3874021.753482 658821.942015,3874015.365034 658835.028488,3874013.596038 658864.949261,3874009.790568 658892.765112,3874006.281357 658909.271076,3874002.131222 658922.411742,3873997.256720 658933.458986,3873992.012973 658944.348840,3873985.324109 658951.362773,3873981.008521 658972.400742,3873968.283625 658979.412767,3873964.078976 659025.083415,3873936.695021 659094.186955,3873895.407967 659121.270324,3873876.354059 659142.034778,3873858.410175 659156.530790,3873843.907267 659195.655645,3873804.538366 659178.634200,3873801.578428 659162.869236,3873799.860743 659136.204090,3873800.171829 659123.602661,3873800.284688 659047.510718,3873802.506914 658995.264123,3873803.814356 658957.186061,3873804.148795 658932.474442,3873802.386444 658919.476679,3873799.053343 658915.402267,3873797.096112 658894.391397,3873787.299347 658877.309013,3873777.349103 658855.215924,3873761.542332 658807.505589,3873717.330527 658796.540347,3873707.376171 658773.811312,3873686.122164 658741.653081,3873655.828108 658644.899234,3873565.164044 658615.251410,3873537.465980 658612.460516,3873535.198471 658590.217136,3873522.718258 658505.319110,3873485.183750 658463.036650,3873464.700042 658417.956566,3873437.067381 658396.198708,3873428.146377 658387.297978,3873425.439925 658320.388508,3873408.745043 658296.983679,3873400.017586 658277.173248,3873389.355560 658269.214141,3873385.001394 658268.596359,3873383.770195 658257.239984,3873375.252032 658250.296414,3873370.249801 658230.187324,3873350.485028 658225.710149,3873345.414774 658215.763162,3873334.591236 658204.621145,3873318.976232 658194.545513,3873305.043930 658188.779907,3873295.291553 658173.798609,3873269.402787 658163.955383,3873252.590004 658144.927117,3873217.866375 658137.667397,3873204.759660 658123.677220,3873184.879395 658114.060517,3873176.058750 658102.929415,3873170.318408 658091.021961,3873167.227267 658070.336379,3873164.871554 658059.112939,3873164.455061 658024.706668,3873163.525765 658019.697898,3873162.773236 658004.582222,3873160.403266 658002.849854,3873160.262290 657999.581055,3873159.207172 657973.433140,3873150.654963 657947.709880,3873138.670781 657794.627403,3873067.898766 657748.519364,3873046.686646 657743.634339,3873044.050335 657712.942742,3873023.659911 657709.059901,3873021.151908 657697.814869,3873011.416054 657688.260888,3872998.935770 657682.403258,3872989.182066 657653.349820,3872921.556989 657637.015941,3872883.996522 657633.525762,3872874.616743 657625.570003,3872854.175955 657622.315310,3872847.019086 657618.178513,3872838.071844 657617.385700,3872836.393964 657615.003590,3872831.582067 657614.117572,3872830.013528 657604.758088,3872811.545527 657580.207853,3872763.303374 657576.586024,3872756.251132 657566.948604,3872738.000280 657527.149426,3872737.312610 657407.751747,3872735.250640 657367.950586,3872734.674582 657354.351421,3872734.328935 657337.646674,3872734.040671 657246.455427,3872732.467574 657216.058321,3872731.943411 657167.149938,3872729.990842 657020.423005,3872724.245434 656971.421398,3872722.403264 656967.289021,3872776.806554 656963.411797,3872826.998395 656951.276196,3872921.981211 656951.429041,3872939.624283 656951.765644,3872994.326523 656951.733271,3873022.728177 656958.087387,3873067.326906 656964.677082,3873114.148727 656982.326142,3873192.114887 657014.731622,3873266.784906 657018.912793,3873273.180845 657056.170043,3873331.181867 657101.519736,3873433.479079 657114.087569,3873451.225198 657170.143943,3873530.852481 657202.899854,3873590.329741 657224.094160,3873647.832697 657261.203023,3873714.264097 657297.790497,3873794.998638 657299.873853,3873801.247680 657321.721905,3873868.414511 657310.599221,3873925.692765 657306.544395,3873933.167191 657309.338836,3873972.268587 657310.792859,3873993.817297 657322.973430,3874060.373515 657331.104702,3874086.475362 657342.430953,3874123.172285 657347.315401,3874125.808400 657361.760105,3874129.940902 657373.819036,3874129.483512 657377.325627,3874127.325130 657379.574129,3874118.710125 657378.175133,3874115.135614 657358.474501,3874098.153496 657350.259695,3874087.471757 657339.529497,3874058.551333 657324.520421,3874018.351449 657322.779885,3874008.114355 657323.090704,3874000.686361 657326.166471,3873991.752772 657332.428940,3873983.317998 657353.253898,3873966.924508 657367.826540,3873953.085948 657375.031812,3873948.217731 657379.431900,3873947.184291 657383.230799,3873949.246917 657385.217035,3873955.827063 657382.715608,3873979.082617 657384.648209,3873988.768383 657392.086911,3874002.099486 657403.193708,3874014.495379 657434.528347,3874039.777615 657446.163520,3874053.292210 657489.942718,3874135.039680 657492.077602,3874138.293973 657495.364446,3874143.565304 657503.885437,3874152.366397 657585.032503,3874206.025047 657587.612189,3874209.952768 657595.162771,3874222.065530 657597.647337,3874226.213612 657598.445688,3874227.558740 657600.837063,3874231.816064 657601.542304,3874233.270534 657608.205621,3874228.060377 657611.426828,3874226.562858 657613.267532,3874225.707077 657624.879680,3874224.687539 657641.723889,3874227.308675 657644.720350,3874228.248122 657655.521742,3874231.874277 657671.205505,3874238.247758 657709.461395,3874253.887505 657718.576641,3874254.710861 657722.238862,3874254.108629 657729.052150,3874250.787136 657733.325271,3874246.534167 657739.224887,3874237.982427 657745.404089,3874229.102673 657749.011526,3874226.391516 657754.653749,3874222.162254 657761.001112,3874219.387478 657769.552368,3874215.874294"/>