<?xml version="1.0" encoding="UTF-8"?>

<!-- generated on Thu Feb 27 14:08:21 2020 by Eclipse SUMO polyconvert Version 1.5.0
<configuration xmlns:xsi="http://www.w3.org/2001/XMLSchema-instance" xsi:noNamespaceSchemaLocation="http://sumo.dlr.de/xsd/polyconvertConfiguration.xsd">

    <input>
        <shapefile-prefixes value="Chattanooga_Tigerline_2011_TAZ"/>
    </input>

    <projection>
        <proj.scale value="1"/>
    </projection>

</configuration>
-->

<additional xmlns:xsi="http://www.w3.org/2001/XMLSchema-instance" xsi:noNamespaceSchemaLocation="http://sumo.dlr.de/xsd/additional_file.xsd">
    <poly id="0" type="unknown" color="51,128,255" fill="1" layer="-1.00" shape="-85.192549,35.074046"/>
    <poly id="1" type="unknown" color="51,128,255" fill="1" layer="-1.00" shape="-85.204099,35.076140"/>
    <poly id="10" type="unknown" color="51,128,255" fill="1" layer="-1.00" shape="-85.269683,35.039025"/>
    <poly id="100" type="unknown" color="51,128,255" fill="1" layer="-1.00" shape="-85.271177,34.998263"/>
    <poly id="101" type="unknown" color="51,128,255" fill="1" layer="-1.00" shape="-85.361959,35.087773"/>
    <poly id="102" type="unknown" color="51,128,255" fill="1" layer="-1.00" shape="-85.405163,35.042115"/>
    <poly id="103" type="unknown" color="51,128,255" fill="1" layer="-1.00" shape="-85.352483,35.043109"/>
    <poly id="104" type="unknown" color="51,128,255" fill="1" layer="-1.00" shape="-85.313362,35.006508"/>
    <poly id="105" type="unknown" color="51,128,255" fill="1" layer="-1.00" shape="-85.293524,35.018466"/>
    <poly id="106" type="unknown" color="51,128,255" fill="1" layer="-1.00" shape="-85.304392,35.033578"/>
    <poly id="107" type="unknown" color="51,128,255" fill="1" layer="-1.00" shape="-85.293703,35.019242"/>
    <poly id="108" type="unknown" color="51,128,255" fill="1" layer="-1.00" shape="-85.314610,35.042508"/>
    <poly id="109" type="unknown" color="51,128,255" fill="1" layer="-1.00" shape="-85.218707,35.001201"/>
    <poly id="11" type="unknown" color="51,128,255" fill="1" layer="-1.00" shape="-85.272758,35.033199"/>
    <poly id="110" type="unknown" color="51,128,255" fill="1" layer="-1.00" shape="-85.208033,34.989414"/>
    <poly id="111" type="unknown" color="51,128,255" fill="1" layer="-1.00" shape="-85.203570,34.989826"/>
    <poly id="112" type="unknown" color="51,128,255" fill="1" layer="-1.00" shape="-85.256894,35.072198"/>
    <poly id="113" type="unknown" color="51,128,255" fill="1" layer="-1.00" shape="-85.275566,35.051469"/>
    <poly id="114" type="unknown" color="51,128,255" fill="1" layer="-1.00" shape="-85.316882,35.040194"/>
    <poly id="115" type="unknown" color="51,128,255" fill="1" layer="-1.00" shape="-85.307477,35.035822"/>
    <poly id="116" type="unknown" color="51,128,255" fill="1" layer="-1.00" shape="-85.316829,35.034875"/>
    <poly id="117" type="unknown" color="51,128,255" fill="1" layer="-1.00" shape="-85.314681,35.031328"/>
    <poly id="118" type="unknown" color="51,128,255" fill="1" layer="-1.00" shape="-85.315786,35.056184"/>
    <poly id="119" type="unknown" color="51,128,255" fill="1" layer="-1.00" shape="-85.309628,35.052236"/>
    <poly id="12" type="unknown" color="51,128,255" fill="1" layer="-1.00" shape="-85.214837,35.020781"/>
    <poly id="120" type="unknown" color="51,128,255" fill="1" layer="-1.00" shape="-85.310586,35.052216"/>
    <poly id="121" type="unknown" color="51,128,255" fill="1" layer="-1.00" shape="-85.310675,35.049641"/>
    <poly id="122" type="unknown" color="51,128,255" fill="1" layer="-1.00" shape="-85.309402,35.044834"/>
    <poly id="123" type="unknown" color="51,128,255" fill="1" layer="-1.00" shape="-85.302132,35.045120"/>
    <poly id="124" type="unknown" color="51,128,255" fill="1" layer="-1.00" shape="-85.303108,35.043358"/>
    <poly id="125" type="unknown" color="51,128,255" fill="1" layer="-1.00" shape="-85.311252,35.041768"/>
    <poly id="126" type="unknown" color="51,128,255" fill="1" layer="-1.00" shape="-85.301479,35.060958"/>
    <poly id="127" type="unknown" color="51,128,255" fill="1" layer="-1.00" shape="-85.289408,35.084015"/>
    <poly id="128" type="unknown" color="51,128,255" fill="1" layer="-1.00" shape="-85.285390,35.056858"/>
    <poly id="129" type="unknown" color="51,128,255" fill="1" layer="-1.00" shape="-85.301929,35.061082"/>
    <poly id="13" type="unknown" color="51,128,255" fill="1" layer="-1.00" shape="-85.211035,35.013962"/>
    <poly id="130" type="unknown" color="51,128,255" fill="1" layer="-1.00" shape="-85.318999,35.072793"/>
    <poly id="131" type="unknown" color="51,128,255" fill="1" layer="-1.00" shape="-85.330760,35.059545"/>
    <poly id="132" type="unknown" color="51,128,255" fill="1" layer="-1.00" shape="-85.297851,35.047010"/>
    <poly id="133" type="unknown" color="51,128,255" fill="1" layer="-1.00" shape="-85.302650,35.044182"/>
    <poly id="134" type="unknown" color="51,128,255" fill="1" layer="-1.00" shape="-85.317424,35.035597"/>
    <poly id="135" type="unknown" color="51,128,255" fill="1" layer="-1.00" shape="-85.317808,35.061549"/>
    <poly id="136" type="unknown" color="51,128,255" fill="1" layer="-1.00" shape="-85.315786,35.056184"/>
    <poly id="137" type="unknown" color="51,128,255" fill="1" layer="-1.00" shape="-85.314267,35.046729"/>
    <poly id="138" type="unknown" color="51,128,255" fill="1" layer="-1.00" shape="-85.312848,35.052301"/>
    <poly id="139" type="unknown" color="51,128,255" fill="1" layer="-1.00" shape="-85.312960,35.046264"/>
    <poly id="14" type="unknown" color="51,128,255" fill="1" layer="-1.00" shape="-85.206526,35.082506"/>
    <poly id="140" type="unknown" color="51,128,255" fill="1" layer="-1.00" shape="-85.313736,35.052187"/>
    <poly id="141" type="unknown" color="51,128,255" fill="1" layer="-1.00" shape="-85.297149,35.032265"/>
    <poly id="142" type="unknown" color="51,128,255" fill="1" layer="-1.00" shape="-85.243599,35.063079"/>
    <poly id="143" type="unknown" color="51,128,255" fill="1" layer="-1.00" shape="-85.259323,35.031448"/>
    <poly id="144" type="unknown" color="51,128,255" fill="1" layer="-1.00" shape="-85.260624,35.039193"/>
    <poly id="145" type="unknown" color="51,128,255" fill="1" layer="-1.00" shape="-85.270081,35.038181"/>
    <poly id="146" type="unknown" color="51,128,255" fill="1" layer="-1.00" shape="-85.290459,35.037806"/>
    <poly id="147" type="unknown" color="51,128,255" fill="1" layer="-1.00" shape="-85.304476,35.033714"/>
    <poly id="148" type="unknown" color="51,128,255" fill="1" layer="-1.00" shape="-85.304324,35.052751"/>
    <poly id="149" type="unknown" color="51,128,255" fill="1" layer="-1.00" shape="-85.303480,35.054342"/>
    <poly id="15" type="unknown" color="51,128,255" fill="1" layer="-1.00" shape="-85.231832,35.086162"/>
    <poly id="150" type="unknown" color="51,128,255" fill="1" layer="-1.00" shape="-85.304562,35.052340"/>
    <poly id="151" type="unknown" color="51,128,255" fill="1" layer="-1.00" shape="-85.304081,35.052295"/>
    <poly id="152" type="unknown" color="51,128,255" fill="1" layer="-1.00" shape="-85.306384,35.049075"/>
    <poly id="153" type="unknown" color="51,128,255" fill="1" layer="-1.00" shape="-85.305293,35.051044"/>
    <poly id="154" type="unknown" color="51,128,255" fill="1" layer="-1.00" shape="-85.306384,35.049075"/>
    <poly id="155" type="unknown" color="51,128,255" fill="1" layer="-1.00" shape="-85.297517,35.050962"/>
    <poly id="156" type="unknown" color="51,128,255" fill="1" layer="-1.00" shape="-85.258514,35.029968"/>
    <poly id="157" type="unknown" color="51,128,255" fill="1" layer="-1.00" shape="-85.271575,35.009396"/>
    <poly id="158" type="unknown" color="51,128,255" fill="1" layer="-1.00" shape="-85.246248,35.059676"/>
    <poly id="159" type="unknown" color="51,128,255" fill="1" layer="-1.00" shape="-85.272293,35.122623"/>
    <poly id="16" type="unknown" color="51,128,255" fill="1" layer="-1.00" shape="-85.228220,35.079047"/>
    <poly id="160" type="unknown" color="51,128,255" fill="1" layer="-1.00" shape="-85.286018,35.033188"/>
    <poly id="161" type="unknown" color="51,128,255" fill="1" layer="-1.00" shape="-85.275279,35.014876"/>
    <poly id="162" type="unknown" color="51,128,255" fill="1" layer="-1.00" shape="-85.275531,35.014951"/>
    <poly id="163" type="unknown" color="51,128,255" fill="1" layer="-1.00" shape="-85.285528,35.004221"/>
    <poly id="164" type="unknown" color="51,128,255" fill="1" layer="-1.00" shape="-85.293530,35.018491"/>
    <poly id="165" type="unknown" color="51,128,255" fill="1" layer="-1.00" shape="-85.292661,35.018486"/>
    <poly id="166" type="unknown" color="51,128,255" fill="1" layer="-1.00" shape="-85.279108,35.117729"/>
    <poly id="167" type="unknown" color="51,128,255" fill="1" layer="-1.00" shape="-85.254964,35.104042"/>
    <poly id="168" type="unknown" color="51,128,255" fill="1" layer="-1.00" shape="-85.255280,35.103999"/>
    <poly id="169" type="unknown" color="51,128,255" fill="1" layer="-1.00" shape="-85.431695,34.982957"/>
    <poly id="17" type="unknown" color="51,128,255" fill="1" layer="-1.00" shape="-85.235125,35.073944"/>
    <poly id="170" type="unknown" color="51,128,255" fill="1" layer="-1.00" shape="-85.183017,35.143747"/>
    <poly id="171" type="unknown" color="51,128,255" fill="1" layer="-1.00" shape="-85.235584,35.123926"/>
    <poly id="172" type="unknown" color="51,128,255" fill="1" layer="-1.00" shape="-85.239490,35.123091"/>
    <poly id="173" type="unknown" color="51,128,255" fill="1" layer="-1.00" shape="-85.229778,35.112644"/>
    <poly id="174" type="unknown" color="51,128,255" fill="1" layer="-1.00" shape="-85.208156,35.125406"/>
    <poly id="175" type="unknown" color="51,128,255" fill="1" layer="-1.00" shape="-85.262692,35.125821"/>
    <poly id="176" type="unknown" color="51,128,255" fill="1" layer="-1.00" shape="-85.285689,35.004280"/>
    <poly id="177" type="unknown" color="51,128,255" fill="1" layer="-1.00" shape="-85.266043,35.031542"/>
    <poly id="178" type="unknown" color="51,128,255" fill="1" layer="-1.00" shape="-85.251078,35.090025"/>
    <poly id="179" type="unknown" color="51,128,255" fill="1" layer="-1.00" shape="-85.285390,35.056858"/>
    <poly id="18" type="unknown" color="51,128,255" fill="1" layer="-1.00" shape="-85.224574,35.074748"/>
    <poly id="180" type="unknown" color="51,128,255" fill="1" layer="-1.00" shape="-85.214074,35.049130"/>
    <poly id="181" type="unknown" color="51,128,255" fill="1" layer="-1.00" shape="-85.266163,35.077686"/>
    <poly id="182" type="unknown" color="51,128,255" fill="1" layer="-1.00" shape="-85.285865,35.033472"/>
    <poly id="183" type="unknown" color="51,128,255" fill="1" layer="-1.00" shape="-85.276108,35.048392"/>
    <poly id="184" type="unknown" color="51,128,255" fill="1" layer="-1.00" shape="-85.270551,35.123111"/>
    <poly id="185" type="unknown" color="51,128,255" fill="1" layer="-1.00" shape="-85.249819,35.118510"/>
    <poly id="186" type="unknown" color="51,128,255" fill="1" layer="-1.00" shape="-85.349047,35.109163"/>
    <poly id="187" type="unknown" color="51,128,255" fill="1" layer="-1.00" shape="-85.289127,35.120203"/>
    <poly id="188" type="unknown" color="51,128,255" fill="1" layer="-1.00" shape="-85.276595,35.135881"/>
    <poly id="189" type="unknown" color="51,128,255" fill="1" layer="-1.00" shape="-85.306267,35.133713"/>
    <poly id="19" type="unknown" color="51,128,255" fill="1" layer="-1.00" shape="-85.158540,34.999256"/>
    <poly id="190" type="unknown" color="51,128,255" fill="1" layer="-1.00" shape="-85.306054,35.132102"/>
    <poly id="191" type="unknown" color="51,128,255" fill="1" layer="-1.00" shape="-85.300151,35.076140"/>
    <poly id="192" type="unknown" color="51,128,255" fill="1" layer="-1.00" shape="-85.295932,35.087690"/>
    <poly id="193" type="unknown" color="51,128,255" fill="1" layer="-1.00" shape="-85.300397,35.102826"/>
    <poly id="194" type="unknown" color="51,128,255" fill="1" layer="-1.00" shape="-85.306683,35.095135"/>
    <poly id="195" type="unknown" color="51,128,255" fill="1" layer="-1.00" shape="-85.303143,35.082614"/>
    <poly id="196" type="unknown" color="51,128,255" fill="1" layer="-1.00" shape="-85.349047,35.109163"/>
    <poly id="197" type="unknown" color="51,128,255" fill="1" layer="-1.00" shape="-85.355064,35.112366"/>
    <poly id="198" type="unknown" color="51,128,255" fill="1" layer="-1.00" shape="-85.351727,35.110165"/>
    <poly id="199" type="unknown" color="51,128,255" fill="1" layer="-1.00" shape="-85.079696,35.088152"/>
    <poly id="2" type="unknown" color="51,128,255" fill="1" layer="-1.00" shape="-85.211264,35.052836"/>
    <poly id="20" type="unknown" color="51,128,255" fill="1" layer="-1.00" shape="-85.055183,35.081368"/>
    <poly id="200" type="unknown" color="51,128,255" fill="1" layer="-1.00" shape="-85.060188,35.103295"/>
    <poly id="201" type="unknown" color="51,128,255" fill="1" layer="-1.00" shape="-85.194592,35.107612"/>
    <poly id="202" type="unknown" color="51,128,255" fill="1" layer="-1.00" shape="-85.140960,35.110069"/>
    <poly id="203" type="unknown" color="51,128,255" fill="1" layer="-1.00" shape="-85.142563,35.130730"/>
    <poly id="204" type="unknown" color="51,128,255" fill="1" layer="-1.00" shape="-85.150444,35.107679"/>
    <poly id="205" type="unknown" color="51,128,255" fill="1" layer="-1.00" shape="-85.117985,35.108628"/>
    <poly id="206" type="unknown" color="51,128,255" fill="1" layer="-1.00" shape="-85.209878,35.015031"/>
    <poly id="207" type="unknown" color="51,128,255" fill="1" layer="-1.00" shape="-85.307215,35.080674"/>
    <poly id="208" type="unknown" color="51,128,255" fill="1" layer="-1.00" shape="-85.258514,35.029968"/>
    <poly id="209" type="unknown" color="51,128,255" fill="1" layer="-1.00" shape="-85.237766,35.008682"/>
    <poly id="21" type="unknown" color="51,128,255" fill="1" layer="-1.00" shape="-85.064873,35.065926"/>
    <poly id="210" type="unknown" color="51,128,255" fill="1" layer="-1.00" shape="-85.231670,35.006625"/>
    <poly id="211" type="unknown" color="51,128,255" fill="1" layer="-1.00" shape="-85.241002,35.021759"/>
    <poly id="212" type="unknown" color="51,128,255" fill="1" layer="-1.00" shape="-85.241514,35.034408"/>
    <poly id="213" type="unknown" color="51,128,255" fill="1" layer="-1.00" shape="-85.209878,35.015031"/>
    <poly id="214" type="unknown" color="51,128,255" fill="1" layer="-1.00" shape="-85.192597,35.026022"/>
    <poly id="215" type="unknown" color="51,128,255" fill="1" layer="-1.00" shape="-85.194198,35.025022"/>
    <poly id="216" type="unknown" color="51,128,255" fill="1" layer="-1.00" shape="-85.181172,35.098773"/>
    <poly id="217" type="unknown" color="51,128,255" fill="1" layer="-1.00" shape="-85.192549,35.074046"/>
    <poly id="218" type="unknown" color="51,128,255" fill="1" layer="-1.00" shape="-85.239182,35.041077"/>
    <poly id="219" type="unknown" color="51,128,255" fill="1" layer="-1.00" shape="-85.223175,35.027011"/>
    <poly id="22" type="unknown" color="51,128,255" fill="1" layer="-1.00" shape="-85.153205,35.008816"/>
    <poly id="220" type="unknown" color="51,128,255" fill="1" layer="-1.00" shape="-85.222376,35.023706"/>
    <poly id="221" type="unknown" color="51,128,255" fill="1" layer="-1.00" shape="-85.251629,35.014714"/>
    <poly id="222" type="unknown" color="51,128,255" fill="1" layer="-1.00" shape="-85.288088,35.039851"/>
    <poly id="23" type="unknown" color="51,128,255" fill="1" layer="-1.00" shape="-85.130389,35.005164"/>
    <poly id="24" type="unknown" color="51,128,255" fill="1" layer="-1.00" shape="-85.158621,35.012558"/>
    <poly id="25" type="unknown" color="51,128,255" fill="1" layer="-1.00" shape="-85.137878,35.028828"/>
    <poly id="26" type="unknown" color="51,128,255" fill="1" layer="-1.00" shape="-85.123426,35.026471"/>
    <poly id="27" type="unknown" color="51,128,255" fill="1" layer="-1.00" shape="-85.123426,35.026471"/>
    <poly id="28" type="unknown" color="51,128,255" fill="1" layer="-1.00" shape="-85.117094,35.069332"/>
    <poly id="29" type="unknown" color="51,128,255" fill="1" layer="-1.00" shape="-85.117051,35.069563"/>
    <poly id="3" type="unknown" color="51,128,255" fill="1" layer="-1.00" shape="-85.199824,35.055300"/>
    <poly id="30" type="unknown" color="51,128,255" fill="1" layer="-1.00" shape="-85.078002,35.063341"/>
    <poly id="31" type="unknown" color="51,128,255" fill="1" layer="-1.00" shape="-85.113138,35.073242"/>
    <poly id="32" type="unknown" color="51,128,255" fill="1" layer="-1.00" shape="-85.079712,35.088268"/>
    <poly id="33" type="unknown" color="51,128,255" fill="1" layer="-1.00" shape="-85.260551,35.087813"/>
    <poly id="34" type="unknown" color="51,128,255" fill="1" layer="-1.00" shape="-85.275259,35.051855"/>
    <poly id="35" type="unknown" color="51,128,255" fill="1" layer="-1.00" shape="-85.185867,35.167015"/>
    <poly id="36" type="unknown" color="51,128,255" fill="1" layer="-1.00" shape="-85.194440,35.158865"/>
    <poly id="37" type="unknown" color="51,128,255" fill="1" layer="-1.00" shape="-85.165311,35.012138"/>
    <poly id="38" type="unknown" color="51,128,255" fill="1" layer="-1.00" shape="-85.166902,35.032432"/>
    <poly id="39" type="unknown" color="51,128,255" fill="1" layer="-1.00" shape="-85.177887,35.057487"/>
    <poly id="4" type="unknown" color="51,128,255" fill="1" layer="-1.00" shape="-85.212415,35.050926"/>
    <poly id="40" type="unknown" color="51,128,255" fill="1" layer="-1.00" shape="-85.188742,35.054005"/>
    <poly id="41" type="unknown" color="51,128,255" fill="1" layer="-1.00" shape="-85.180393,35.033482"/>
    <poly id="42" type="unknown" color="51,128,255" fill="1" layer="-1.00" shape="-85.174868,35.049622"/>
    <poly id="43" type="unknown" color="51,128,255" fill="1" layer="-1.00" shape="-85.129951,35.041361"/>
    <poly id="44" type="unknown" color="51,128,255" fill="1" layer="-1.00" shape="-85.161967,35.044731"/>
    <poly id="45" type="unknown" color="51,128,255" fill="1" layer="-1.00" shape="-85.158507,35.047351"/>
    <poly id="46" type="unknown" color="51,128,255" fill="1" layer="-1.00" shape="-85.128364,35.044354"/>
    <poly id="47" type="unknown" color="51,128,255" fill="1" layer="-1.00" shape="-85.127859,35.053223"/>
    <poly id="48" type="unknown" color="51,128,255" fill="1" layer="-1.00" shape="-85.184351,35.095945"/>
    <poly id="49" type="unknown" color="51,128,255" fill="1" layer="-1.00" shape="-85.185867,35.167015"/>
    <poly id="5" type="unknown" color="51,128,255" fill="1" layer="-1.00" shape="-85.337472,35.020328"/>
    <poly id="50" type="unknown" color="51,128,255" fill="1" layer="-1.00" shape="-85.205682,35.188516"/>
    <poly id="51" type="unknown" color="51,128,255" fill="1" layer="-1.00" shape="-85.197609,35.149733"/>
    <poly id="52" type="unknown" color="51,128,255" fill="1" layer="-1.00" shape="-85.304055,35.080663"/>
    <poly id="53" type="unknown" color="51,128,255" fill="1" layer="-1.00" shape="-85.307553,35.111219"/>
    <poly id="54" type="unknown" color="51,128,255" fill="1" layer="-1.00" shape="-85.321177,35.113686"/>
    <poly id="55" type="unknown" color="51,128,255" fill="1" layer="-1.00" shape="-85.241516,35.021782"/>
    <poly id="56" type="unknown" color="51,128,255" fill="1" layer="-1.00" shape="-85.212312,35.016051"/>
    <poly id="57" type="unknown" color="51,128,255" fill="1" layer="-1.00" shape="-85.226761,35.024464"/>
    <poly id="58" type="unknown" color="51,128,255" fill="1" layer="-1.00" shape="-85.269039,35.144784"/>
    <poly id="59" type="unknown" color="51,128,255" fill="1" layer="-1.00" shape="-85.250641,35.176857"/>
    <poly id="6" type="unknown" color="51,128,255" fill="1" layer="-1.00" shape="-85.320586,35.043077"/>
    <poly id="60" type="unknown" color="51,128,255" fill="1" layer="-1.00" shape="-85.247818,35.158016"/>
    <poly id="61" type="unknown" color="51,128,255" fill="1" layer="-1.00" shape="-85.062881,35.146088"/>
    <poly id="62" type="unknown" color="51,128,255" fill="1" layer="-1.00" shape="-85.147258,35.068491"/>
    <poly id="63" type="unknown" color="51,128,255" fill="1" layer="-1.00" shape="-85.110741,35.074242"/>
    <poly id="64" type="unknown" color="51,128,255" fill="1" layer="-1.00" shape="-85.165197,35.074182"/>
    <poly id="65" type="unknown" color="51,128,255" fill="1" layer="-1.00" shape="-85.214825,35.193074"/>
    <poly id="66" type="unknown" color="51,128,255" fill="1" layer="-1.00" shape="-85.253368,35.186434"/>
    <poly id="67" type="unknown" color="51,128,255" fill="1" layer="-1.00" shape="-85.247958,35.165576"/>
    <poly id="68" type="unknown" color="51,128,255" fill="1" layer="-1.00" shape="-85.267387,35.157829"/>
    <poly id="69" type="unknown" color="51,128,255" fill="1" layer="-1.00" shape="-85.269039,35.144784"/>
    <poly id="7" type="unknown" color="51,128,255" fill="1" layer="-1.00" shape="-85.311340,35.021744"/>
    <poly id="70" type="unknown" color="51,128,255" fill="1" layer="-1.00" shape="-85.227195,35.175537"/>
    <poly id="71" type="unknown" color="51,128,255" fill="1" layer="-1.00" shape="-85.237629,35.179162"/>
    <poly id="72" type="unknown" color="51,128,255" fill="1" layer="-1.00" shape="-85.251584,35.014789"/>
    <poly id="73" type="unknown" color="51,128,255" fill="1" layer="-1.00" shape="-85.288799,35.039165"/>
    <poly id="74" type="unknown" color="51,128,255" fill="1" layer="-1.00" shape="-85.250088,35.117921"/>
    <poly id="75" type="unknown" color="51,128,255" fill="1" layer="-1.00" shape="-85.230957,35.075878"/>
    <poly id="76" type="unknown" color="51,128,255" fill="1" layer="-1.00" shape="-85.060188,35.103295"/>
    <poly id="77" type="unknown" color="51,128,255" fill="1" layer="-1.00" shape="-85.249471,35.049361"/>
    <poly id="78" type="unknown" color="51,128,255" fill="1" layer="-1.00" shape="-85.246004,35.133756"/>
    <poly id="79" type="unknown" color="51,128,255" fill="1" layer="-1.00" shape="-85.176883,35.051275"/>
    <poly id="8" type="unknown" color="51,128,255" fill="1" layer="-1.00" shape="-85.337994,35.019865"/>
    <poly id="80" type="unknown" color="51,128,255" fill="1" layer="-1.00" shape="-85.166902,35.032432"/>
    <poly id="81" type="unknown" color="51,128,255" fill="1" layer="-1.00" shape="-85.138825,34.986449"/>
    <poly id="82" type="unknown" color="51,128,255" fill="1" layer="-1.00" shape="-85.155674,35.042934"/>
    <poly id="83" type="unknown" color="51,128,255" fill="1" layer="-1.00" shape="-85.126810,35.064005"/>
    <poly id="84" type="unknown" color="51,128,255" fill="1" layer="-1.00" shape="-85.179827,35.093387"/>
    <poly id="85" type="unknown" color="51,128,255" fill="1" layer="-1.00" shape="-85.190339,35.073672"/>
    <poly id="86" type="unknown" color="51,128,255" fill="1" layer="-1.00" shape="-85.098188,35.066685"/>
    <poly id="87" type="unknown" color="51,128,255" fill="1" layer="-1.00" shape="-85.343973,34.986196"/>
    <poly id="88" type="unknown" color="51,128,255" fill="1" layer="-1.00" shape="-85.321556,35.008251"/>
    <poly id="89" type="unknown" color="51,128,255" fill="1" layer="-1.00" shape="-85.337769,35.020058"/>
    <poly id="9" type="unknown" color="51,128,255" fill="1" layer="-1.00" shape="-85.316566,35.013001"/>
    <poly id="90" type="unknown" color="51,128,255" fill="1" layer="-1.00" shape="-85.297436,34.984550"/>
    <poly id="91" type="unknown" color="51,128,255" fill="1" layer="-1.00" shape="-85.321526,35.008250"/>
    <poly id="92" type="unknown" color="51,128,255" fill="1" layer="-1.00" shape="-85.310244,35.007189"/>
    <poly id="93" type="unknown" color="51,128,255" fill="1" layer="-1.00" shape="-85.326999,34.986657"/>
    <poly id="94" type="unknown" color="51,128,255" fill="1" layer="-1.00" shape="-85.271609,35.009418"/>
    <poly id="95" type="unknown" color="51,128,255" fill="1" layer="-1.00" shape="-85.271119,34.998242"/>
    <poly id="96" type="unknown" color="51,128,255" fill="1" layer="-1.00" shape="-85.332882,35.054493"/>
    <poly id="97" type="unknown" color="51,128,255" fill="1" layer="-1.00" shape="-85.306023,35.112766"/>
    <poly id="98" type="unknown" color="51,128,255" fill="1" layer="-1.00" shape="-85.290062,34.990738"/>
    <poly id="99" type="unknown" color="51,128,255" fill="1" layer="-1.00" shape="-85.282761,34.998203"/>
</additional>
