<additional>

       <route id="northgate" edges="-87494761 -87494804 -87494845 -87494861 -762055797 -1118656747 -1118656746 -1118656745 -1118656744 -1118656743 -1118656742 -87495174 -87507491 -1118663561 -1118663560 -1118663559 -1118663558 -1118663563 -1118663562 -772908736 -1192639911 -1192639910 -1119235008 -772907217 -772907215 -1118674239 -1118678892 -1118678891 -1118674240 -1118674242 -1119225475 -1119225474 -1118652245 -1118652247 -1118652246 -1118652244 -1118652243 -87495464 -87495497 -762055850 -762055849 -87495657 -87495679 -87495719 -924841728 -1118647500 -1118647499 -1118647502 -1118647501 -1118647504 -1118647503 -772913623 -1191167996 -1191167995 -87495877 -1191178514 -1191178513 -87495901 -87495909 -1191178516 -1191178515 -772913619 -772913618 -1192404569 -1192404568 -1192404953 -1192404952 -87496093 -1192404949 -1192404948 -1191167993 -1191166488 -1191185162 -1191185161 -87496243 -772913614 -772913613 -1118550840 -1119068754 -1191166492 -1191166491 -1191185945 -1191185944 -1192405344 -1192405343 -1192404579 -1192404578 -87496608 -1191166490 -1191166489 -1191186972 -1191186971 -87496791 -1191187381 -1191187380 -772913628 -772913627 -87497013 -87497070 -1192706533 -1192706532 -772913625 -87497447 -87497470 -87497477 -87497528 -773094223 -773094222 -87497659 -87497687 -773094221 -773094220 -87497788 -87497837 -87497853 -87497891 -1192706535 -1192706534 -901135540 -87497960 -87497974 -1118366765 -1118366764 -1192402195 -1192631223 -1192631222 -1191165164 -1191165162 1191165163 87498084 87498066 87498061 87498033 87498010 87498003 1123922718 1123922719 -87509418 -1118429944 -1118429943 -868743740 -868741703 -973214448 -785505099 -785505098 -87498421 -1118535962 -1118535961 -1118535960 -1118535959 -936408692 -1118460568 -1118460570 -1118460569 -772824805 -1118550097 -1118550096 -87498780 -87498878 -87499017 -1118561463 -1118561462 -87499273 -1118872228 -1118872227 -87499382 -1192099383 -1192099382 -1192099381 -1192099380 1192099380 1192099380 1192099381 1192099382 1192099383 87499382 1118872227 1118872228 87499273 1118561462 1118561463 87499017 87498878 87498780 1118550096 1118550097 772824805 1118460569 1118460570 1118460568 936408692 1118535959 1118535960 1118535961 1118535962 87498421 785505098 785505099 973214448 868741703 868743740 1118429943 1118429944 87509418 -1123922719 -1123922718 -87498003 -87498010 -87498033 -87498061 -87498066 -87498084 -1191165163 1191165162 1191165164 1192631222 1192631223 1192402195 1118366764 1118366765 87497974 87497960 901135540 1192706534 1192706535 87497891 87497853 87497837 87497788 773094220 773094221 87497687 87497659 773094222 773094223 87497528 87497477 87497470 87497447 772913625 1192706532 1192706533 87497070 87497013 772913627 772913628 1191187380 1191187381 87496791 1191186971 1191186972 1191166489 1191166490 87496608 1192404578 1192404579 1192405343 1192405344 1191185944 1191185945 1191166491 1191166492 1119068754 1118550840 772913613 772913614 87496243 1191185161 1191185162 1191166488 1191167993 1192404948 1192404949 87496093 1192404952 1192404953 1192404568 1192404569 772913618 772913619 1191178515 1191178516 87495909 87495901 1191178513 1191178514 87495877 1191167995 1191167996 772913623 1118647503 1118647504 1118647501 1118647502 1118647499 1118647500 924841728 87495719 87495679 87495657 762055849 762055850 87495497 87495464 1118652243 1118652244 1118652246 1118652247 1118652245 1119225474 1119225475 1118674242 1118674240 1118678891 1118678892 1118674239 772907215 772907217 1119235008 1192639910 1192639911 772908736 1118663562 1118663563 1118663558 1118663559 1118663560 1118663561 87507491 87495174 1118656742 1118656743 1118656744 1118656745 1118656746 1118656747 762055797 87494861 87494845 87494804 87494761 87494712 87494600 772406793 772406933 1192784820 1192784821 772406935 772406936 -87494343 772406801 87494310 1192844000 1192844001 1118666525 1118666526 124159090 1118666524 1118666528 1118666529 1118666527 124159092 124159088 -1112816221 -1112816220 -87494138 -1193925202 -1193925201 -124165850 -87506125 -721569020 -948461812 -948461811 -948461807 -948461749 -948461748 -948461746 -948461744 -948461740 -948461737 -948461734 -948461731 -948461728 -948461725 -948461638 -948461753 -948461752 -948461757 -948461756 -948461760 -948461763 -948461766 -948461770 -948461769 -948461776 -948461775 -948461624 -948461781 -948461785 -948461784 -948461616 -948461644 -948461796 -948461795 -948461645 -721569026 -721569025 721569025 721569026 948461645 948461795 948461796 948461644 948461616 948461784 948461785 948461781 948461624 948461775 948461776 948461769 948461770 948461766 948461763 948461760 948461756 948461757 948461752 948461753 948461638 948461725 948461728 948461731 948461734 948461737 948461740 948461744 948461746 948461748 948461749 948461807 948461811 948461812 721569020 87506125 -87506496 -721569018 -721569017 -772406926 -1192874370 -1192874369 -772406930 -1191129549 -1191129548 -772406932 -772406931 -772406798 -772406793 -87494600 -87494712 -87494761" color="yellow">
			<stop busStop="busStop_1192099383_0_139" duration="1"/>
			<stop busStop="busStop_1192099383_0_137" duration="1"/>
			<stop busStop="busStop_87499273_0_134" duration="1"/>
			<stop busStop="busStop_1118561462_0_131" duration="1"/>
			<stop busStop="busStop_87498878_0_126" duration="1"/>
			<stop busStop="busStop_87498780_0_127" duration="1"/>
			<stop busStop="busStop_1118550097_0_125" duration="1"/>
			<stop busStop="busStop_1118460568_0_123" duration="1"/>
			<stop busStop="busStop_1118535962_0_121" duration="1"/>
			<stop busStop="busStop_1118535962_0_120" duration="1"/>
			<stop busStop="busStop_-1123922718_0_37" duration="1"/>
			<stop busStop="busStop_-87498003_0_38" duration="1"/>
			<stop busStop="busStop_-87498061_0_40" duration="1"/>
			<stop busStop="busStop_-87498084_0_41" duration="1"/>
			<stop busStop="busStop_1192706535_0_44" duration="1"/>
			<stop busStop="busStop_87497837_0_47" duration="1"/>
			<stop busStop="busStop_87497788_0_46" duration="1"/>
			<stop busStop="busStop_773094221_0_49" duration="1"/>
			<stop busStop="busStop_87497470_0_51" duration="1"/>
			<stop busStop="busStop_1192706532_0_53" duration="1"/>
			<stop busStop="busStop_1192706533_0_54" duration="1"/>
			<stop busStop="busStop_1192706533_0_55" duration="1"/>
			<stop busStop="busStop_1192706533_0_56" duration="1"/>
			<stop busStop="busStop_87497070_0_58" duration="1"/>
			<stop busStop="busStop_1191186972_0_60" duration="1"/>
			<stop busStop="busStop_87496608_0_61" duration="1"/>
			<stop busStop="busStop_1118550840_0_63" duration="1"/>
			<stop busStop="busStop_772913614_0_65" duration="1"/>
			<stop busStop="busStop_1192404949_0_66" duration="1"/>
			<stop busStop="busStop_87496093_0_68" duration="1"/>
			<stop busStop="busStop_87495877_0_74" duration="1"/>
			<stop busStop="busStop_1118647503_0_75" duration="1"/>
			<stop busStop="busStop_1118647502_0_77" duration="1"/>
			<stop busStop="busStop_924841728_0_79" duration="1"/>
			<stop busStop="busStop_87495719_0_81" duration="1"/>
			<stop busStop="busStop_87495657_0_84" duration="1"/>
			<stop busStop="busStop_762055850_0_86" duration="1"/>
			<stop busStop="busStop_762055850_0_87" duration="1"/>
			<stop busStop="busStop_87495497_0_89" duration="1"/>
			<stop busStop="busStop_87495464_0_90" duration="1"/>
			<stop busStop="busStop_1118652244_0_93" duration="1"/>
			<stop busStop="busStop_1118674239_0_95" duration="1"/>
			<stop busStop="busStop_772908736_0_98" duration="1"/>
			<stop busStop="busStop_1118663563_0_100" duration="1"/>
			<stop busStop="busStop_1118663561_0_101" duration="1"/>
			<stop busStop="busStop_1118656743_0_102" duration="1"/>
			<stop busStop="busStop_1118656747_0_104" duration="1"/>
			<stop busStop="busStop_87494845_0_107" duration="1"/>
			<stop busStop="busStop_87494712_0_109" duration="1"/>
			<stop busStop="busStop_772406793_0_112" duration="1"/>
			<stop busStop="busStop_1118666528_0_116" duration="1"/>
			<stop busStop="busStop_-1112816221_0_117" duration="1"/>
			<stop busStop="busStop_-1193925202_0_114" duration="1"/>
			<stop busStop="busStop_-87494600_0_111" duration="1"/>
			<stop busStop="busStop_-87494600_0_110" duration="1"/>
			<stop busStop="busStop_-87494761_0_108" duration="1"/>
			<stop busStop="busStop_-87494845_0_106" duration="1"/>
			<stop busStop="busStop_-1118656747_0_105" duration="1"/>
			<stop busStop="busStop_-1118656743_0_103" duration="1"/>
			<stop busStop="busStop_-1118663562_0_99" duration="1"/>
			<stop busStop="busStop_-1192639910_0_97" duration="1"/>
			<stop busStop="busStop_-772907217_0_96" duration="1"/>
			<stop busStop="busStop_-1118652246_0_94" duration="1"/>
			<stop busStop="busStop_-1118652243_0_92" duration="1"/>
			<stop busStop="busStop_-87495464_0_91" duration="1"/>
			<stop busStop="busStop_-87495497_0_88" duration="1"/>
			<stop busStop="busStop_-762055849_0_85" duration="1"/>
			<stop busStop="busStop_-87495657_0_83" duration="1"/>
			<stop busStop="busStop_-87495679_0_82" duration="1"/>
			<stop busStop="busStop_-87495719_0_80" duration="1"/>
			<stop busStop="busStop_-1118647499_0_78" duration="1"/>
			<stop busStop="busStop_-1118647503_0_76" duration="1"/>
			<stop busStop="busStop_-1118647503_0_73" duration="1"/>
			<stop busStop="busStop_-87495877_0_72" duration="1"/>
			<stop busStop="busStop_-87495901_0_71" duration="1"/>
			<stop busStop="busStop_-87495909_0_70" duration="1"/>
			<stop busStop="busStop_-1192404952_0_69" duration="1"/>
			<stop busStop="busStop_-87496093_0_67" duration="1"/>
			<stop busStop="busStop_-772913613_0_64" duration="1"/>
			<stop busStop="busStop_-1191185945_0_62" duration="1"/>
			<stop busStop="busStop_-772913628_0_59" duration="1"/>
			<stop busStop="busStop_-87497070_0_57" duration="1"/>
			<stop busStop="busStop_-772913625_0_52" duration="1"/>
			<stop busStop="busStop_-87497528_0_50" duration="1"/>
			<stop busStop="busStop_-87497687_0_48" duration="1"/>
			<stop busStop="busStop_-87497788_0_45" duration="1"/>
			<stop busStop="busStop_-901135540_0_43" duration="1"/>
			<stop busStop="busStop_-87497974_0_42" duration="1"/>
			<stop busStop="busStop_87498003_0_39" duration="1"/>
			<stop busStop="busStop_-87498421_0_119" duration="1"/>
			<stop busStop="busStop_-1118535959_0_122" duration="1"/>
			<stop busStop="busStop_-1118460569_0_124" duration="1"/>
			<stop busStop="busStop_-87499017_0_130" duration="1"/>
			<stop busStop="busStop_-1118561462_0_132" duration="1"/>
			<stop busStop="busStop_-87499273_0_133" duration="1"/>
			<stop busStop="busStop_-1118872227_0_135" duration="1"/>
			<stop busStop="busStop_-1192099383_0_138" duration="1"/>
			<stop busStop="busStop_-1192099380_0_140" duration="1"/>
		</route>

    	<route id="altonPark" edges="-87503768 -1118131400 -1118131399 -1192402554 -1192402553 -87504022 -1192402809 -1192402808 -87504195 -1074467734 -1192490386 -1192490385 -1193180027 -1193180026 -1196689891 -1196689890 -772776973 -925448327 -925448326 -1193183138 -1193183137 -924884699 -1196689914 -1196689913 -87505345 -87505498 -1193180029 -1193180028 -87505715 -777865061 -777865060 87505769 -87505510 -87505622 -87505692 87505691 -87505567 -87505656 87505632 87505592 87505348 87505301 87505246 87505219 87505127 925448329 925448330 801451112 1192404126 1192404127 87504606 1193180026 1193180027 1192490385 1192490386 1074467734 87504195 1192402808 1192402809 87504022 1192402553 1192402554 1118131399 1118131400 87503768 901132920 901132921 87503679 87503649 737869923 737869924 1192503597 1192503598 1118251547 772407315 1118247332 1118247333 87503392 87507148 87503306 87503297 -87503413 -1143258238 -1143258237 -772407318 -1143258235 -1143258234 -1143258241 -1192474158 -1192474157 87503571 87503433 772406532 772406533 772406534 1118257007 1192498083 1192498084 1116391786 87502895 87502845 87502788 1192402547 1192402548 1118119300 1118119301 -1192404132 -1192404131 -1192552083 -1192552082 -87502741 -87502842 1074467757 1118126226 1118126229 1118126230 1118126227 1118126228 87507267 918343069 918343070 982084506 982084507 772407796 772407797 87501583 87501462 772824491 1118506560 1118506561 87501239 918627091 918627094 918627099 1193790596 1193790597 87501058 1118381919 1118381920 772824490 87500887 772824487 772824488 1195397595 1195397596 1195397597 1195397592 1195397593 1118284494 1118284495 87500296 1192013908 1192013909 929514011 1192000005 1192000006 87499924 87499902 87499758 1192099380 1192099381 1192099382 1192099383 87499382 1118872227 1118872228 87499273 1118561462 1118561463 87499017 87498878 87498780 1118550096 1118550097 772824805 1118460569 1118460570 1118460568 -1118460568 -1118460570 -1118460569 -772824805 -1118550097 -1118550096 -87498780 -87498878 -87499017 -1118561463 -1118561462 -87499273 -1118872228 -1118872227 -87499382 -1192099383 -1192099382 -1192099381 -1192099380 -87499758 -87499902 -87499924 -1192000006 -1192000005 -929514011 -1192013909 -1192013908 -87500296 -1118284495 -1118284494 -1195397593 -1195397592 -1195397597 -1195397596 -1195397595 -772824488 -772824487 -87500887 -772824490 -1118381920 -1118381919 -87501058 -1193790597 -1193790596 -918627099 -918627094 -918627091 -87501239 -1118506561 -1118506560 -772824491 -87501462 -87501583 -772407797 -772407796 -982084507 -982084506 -918343070 -918343069 -87507267 -1118126228 -1118126227 -1118126230 -1118126229 -1118126226 -1074467757 87502842 87502741 1192552082 1192552083 1192404131 1192404132 -1118119301 -1118119300 -1192402548 -1192402547 -87502788 -87502845 -87502895 -1116391786 -1192498084 -1192498083 -1118257007 -772406534 -772406533 -772406532 -87503433 -87503571 1192474157 1192474158 1143258241 1143258234 1143258235 772407318 1143258237 1143258238 87503413 -87503297 -87503306 -87507148 -87503392 -1118247333 -1118247332 -772407315 -1118251547 -1192503598 -1192503597 -737869924 -737869923 -87503649 -87503679 -901132921 -901132920 -87503768" color="orange">
    		<stop busStop="busStop_-87499017_0_130" duration="1"/>
			<stop busStop="busStop_-1118561462_0_132" duration="1"/>
			<stop busStop="busStop_-87499273_0_133" duration="1"/>
			<stop busStop="busStop_-1118872227_0_135" duration="1"/>
			<stop busStop="busStop_-1192099383_0_138" duration="1"/>
			<stop busStop="busStop_-1192099380_0_140" duration="1"/>
			<stop busStop="busStop_-87499758_0_142" duration="1"/>
			<stop busStop="busStop_-1192000005_0_147" duration="1"/>
			<stop busStop="busStop_-929514011_0_148" duration="1"/>
			<stop busStop="busStop_-1192013908_0_151" duration="1"/>
			<stop busStop="busStop_-87500296_0_153" duration="1"/>
			<stop busStop="busStop_-87500487_0_157" duration="1"/>
			<stop busStop="busStop_-87500700_0_159" duration="1"/>
			<stop busStop="busStop_-772824487_0_161" duration="1"/>
			<stop busStop="busStop_-1118381920_0_163" duration="1"/>
			<stop busStop="busStop_-772824491_0_164" duration="1"/>
			<stop busStop="busStop_-87501462_0_165" duration="1"/>
			<stop busStop="busStop_-87501583_0_167" duration="1"/>
			<stop busStop="busStop_-918343069_0_171" duration="1"/>
			<stop busStop="busStop_-87507267_0_173" duration="1"/>
			<stop busStop="busStop_-1118126227_0_175" duration="1"/>
			<stop busStop="busStop_-1118126226_0_176" duration="1"/>
			<stop busStop="busStop_87502842_0_181" duration="1"/>
			<stop busStop="busStop_87502741_0_183" duration="1"/>
			<stop busStop="busStop_1192404132_0_185" duration="1"/>
			<stop busStop="busStop_-1118119300_0_188" duration="1"/>
			<stop busStop="busStop_-87502845_0_190" duration="1"/>
			<stop busStop="busStop_-1192498083_0_193" duration="1"/>
			<stop busStop="busStop_-1118257007_0_194" duration="1"/>
			<stop busStop="busStop_-772406532_0_196" duration="1"/>
			<stop busStop="busStop_-87503433_0_197" duration="1"/>
			<stop busStop="busStop_1143258234_0_201" duration="1"/>
			<stop busStop="busStop_1143258235_0_203" duration="1"/>
			<stop busStop="busStop_1143258237_0_205" duration="1"/>
			<stop busStop="busStop_87503413_0_208" duration="1"/>
			<stop busStop="busStop_-87507148_0_210" duration="1"/>
			<stop busStop="busStop_-87503392_0_212" duration="1"/>
			<stop busStop="busStop_-772407315_0_179" duration="1"/>
			<stop busStop="busStop_-737869924_0_215" duration="1"/>
			<stop busStop="busStop_-737869923_0_216" duration="1"/>
			<stop busStop="busStop_-87503679_0_218" duration="1"/>
			<stop busStop="busStop_-901132920_0_220" duration="1"/>
			<stop busStop="busStop_-87503768_0_222" duration="1"/>
			<stop busStop="busStop_-1192402554_0_225" duration="1"/>
			<stop busStop="busStop_-1192402553_0_226" duration="1"/>
			<stop busStop="busStop_-1192402808_0_228" duration="1"/>
			<stop busStop="busStop_-1192490386_0_231" duration="1"/>
			<stop busStop="busStop_-1196689891_0_232" duration="1"/>
			<stop busStop="busStop_-1196689890_0_280" duration="1"/>
			<stop busStop="busStop_-772776973_0_279" duration="1"/>
			<stop busStop="busStop_-1193183138_0_278" duration="1"/>
			<stop busStop="busStop_-924884699_0_277" duration="1"/>
			<stop busStop="busStop_-1196689913_0_276" duration="1"/>
			<stop busStop="busStop_-87505498_0_274" duration="1"/>
			<stop busStop="busStop_-1193180029_0_273" duration="1"/>
			<stop busStop="busStop_-87505715_0_272" duration="1"/>
			<stop busStop="busStop_-87505715_0_270" duration="1"/>
			<stop busStop="busStop_87505769_0_267" duration="1"/>
			<stop busStop="busStop_87505769_0_266" duration="1"/>
			<stop busStop="busStop_-87505510_0_264" duration="1"/>
			<stop busStop="busStop_-87505622_0_261" duration="1"/>
			<stop busStop="busStop_-87505622_0_260" duration="1"/>
			<stop busStop="busStop_-87505692_0_257" duration="1"/>
			<stop busStop="busStop_-87505567_0_255" duration="1"/>
			<stop busStop="busStop_87505632_0_251" duration="1"/>
			<stop busStop="busStop_87505592_0_250" duration="1"/>
			<stop busStop="busStop_87505592_0_249" duration="1"/>
			<stop busStop="busStop_87505592_0_248" duration="1"/>
			<stop busStop="busStop_87505348_0_247" duration="1"/>
			<stop busStop="busStop_87505301_0_246" duration="1"/>
			<stop busStop="busStop_87505301_0_245" duration="1"/>
			<stop busStop="busStop_87505246_0_244" duration="1"/>
			<stop busStop="busStop_87505246_0_243" duration="1"/>
			<stop busStop="busStop_87505219_0_242" duration="1"/>
			<stop busStop="busStop_925448330_0_240" duration="1"/>
			<stop busStop="busStop_801451112_0_237" duration="1"/>
			<stop busStop="busStop_1192404127_0_235" duration="1"/>
			<stop busStop="busStop_87504606_0_233" duration="1"/>
			<stop busStop="busStop_1192490385_0_230" duration="1"/>
			<stop busStop="busStop_1074467734_0_229" duration="1"/>
			<stop busStop="busStop_87504022_0_227" duration="1"/>
			<stop busStop="busStop_1192402554_0_224" duration="1"/>
			<stop busStop="busStop_1118131400_0_223" duration="1"/>
			<stop busStop="busStop_87503768_0_221" duration="1"/>
			<stop busStop="busStop_901132921_0_219" duration="1"/>
			<stop busStop="busStop_87503679_0_217" duration="1"/>
			<stop busStop="busStop_737869924_0_214" duration="1"/>
			<stop busStop="busStop_1118251547_0_213" duration="1"/>
			<stop busStop="busStop_1118247333_0_178" duration="1"/>
			<stop busStop="busStop_87507148_0_211" duration="1"/>
			<stop busStop="busStop_87503297_0_209" duration="1"/>
			<stop busStop="busStop_-87503413_0_207" duration="1"/>
			<stop busStop="busStop_-1143258237_0_206" duration="1"/>
			<stop busStop="busStop_-1143258235_0_204" duration="1"/>
			<stop busStop="busStop_-1143258234_0_202" duration="1"/>
			<stop busStop="busStop_-1143258234_0_200" duration="1"/>
			<stop busStop="busStop_-1143258241_0_199" duration="1"/>
			<stop busStop="busStop_-1192474158_0_198" duration="1"/>
			<stop busStop="busStop_772406534_0_195" duration="1"/>
			<stop busStop="busStop_1192498084_0_192" duration="1"/>
			<stop busStop="busStop_87502845_0_191" duration="1"/>
			<stop busStop="busStop_87502788_0_189" duration="1"/>
			<stop busStop="busStop_1118119301_0_187" duration="1"/>
			<stop busStop="busStop_-1192404131_0_184" duration="1"/>
			<stop busStop="busStop_-1192552082_0_182" duration="1"/>
			<stop busStop="busStop_-87502741_0_180" duration="1"/>
			<stop busStop="busStop_-87502842_0_177" duration="1"/>
			<stop busStop="busStop_1118126228_0_174" duration="1"/>
			<stop busStop="busStop_87507267_0_172" duration="1"/>
			<stop busStop="busStop_918343069_0_170" duration="1"/>
			<stop busStop="busStop_918343070_0_169" duration="1"/>
			<stop busStop="busStop_772407797_0_168" duration="1"/>
			<stop busStop="busStop_87501583_0_166" duration="1"/>
			<stop busStop="busStop_772824490_0_162" duration="1"/>
			<stop busStop="busStop_772824488_0_160" duration="1"/>
			<stop busStop="busStop_1195397594_0_158" duration="1"/>
			<stop busStop="busStop_87500487_0_156" duration="1"/>
			<stop busStop="busStop_1118284494_0_155" duration="1"/>
			<stop busStop="busStop_87500296_0_152" duration="1"/>
			<stop busStop="busStop_1192013908_0_150" duration="1"/>
			<stop busStop="busStop_1192000005_0_146" duration="1"/>
			<stop busStop="busStop_1192000006_0_144" duration="1"/>
			<stop busStop="busStop_87499902_0_143" duration="1"/>
			<stop busStop="busStop_87499758_0_141" duration="1"/>
			<stop busStop="busStop_1192099383_0_139" duration="1"/>
			<stop busStop="busStop_1192099383_0_137" duration="1"/>
			<stop busStop="busStop_87499273_0_134" duration="1"/>
			<stop busStop="busStop_1118561462_0_131" duration="1"/>
			<stop busStop="busStop_87499017_0_129" duration="1"/>
			<stop busStop="busStop_87498878_0_126" duration="1"/>
			<stop busStop="busStop_87498780_0_127" duration="1"/>
			<stop busStop="busStop_1118550097_0_125" duration="1"/>
		</route>

    	<route id="amnicolaHighway" edges="-87509497 87509426 -1192229889 -1192229888 -1192229893 -1192450271 -1192450270 -1192229885 -1192229887 -1192229886 -1118647680 -1118647679 -87496070 -990182364 -990182363 -1192455637 -1192455636 -1192404997 -989259915 -1192405004 -1192405003 -1118575025 -1074719312 -1120523848 -1120523847 -1118575023 -1118575022 -1118575021 -1118575020 -1120522419 -1120522418 -87496807 -87497134 -87497307 -87497372 -1192565102 -1192565101 -1118580175 -1118580174 -1118580173 -772348916 -1074714058 -1074714057 -1118577177 -1118577176 -772348912 -1118577180 -1118577179 -1118577178 -1118577182 -1192563154 -1192563153 -772865428 -1047189936 -1047189935 -87509367 87509369 1118482810 1118482811 -124165536 -772865438 1118482808 1118482809 87498614 1129329037 1129329038 772870326 -87498497 -87498500 -87498502 -1118460568 -1118460570 -1118460569 -772824805 -1118550097 -1118550096 -87498780 -87498780 -87498878 -87498886 87498887 87498784 724069058 724069059 772824791 1118546326 1118546327 1118545685 1118545686 1118546324 -1118546325 -1118584116 -1118584115 -1118584114 1118584113 772824815 -772824817 -1118674996 -1118674995 -772824793 -87498649 -87498705 -1118485281 1118485282 87498686 87509364 1047189933 1047189934 772865430 1192563153 1192563154 1118577182 1118577178 1118577179 1118577180 772348912 1118577176 1118577177 1074714057 1074714058 772348916 1118580173 1118580174 1118580175 1192565101 1192565102 87497372 87497307 87497134 87496807 1120522418 1120522419 1118575020 1118575021 1118575022 1118575023 1120523847 1120523848 1074719312 1118575025 1192405003 1192405004 989259915 1192404997 1192455636 1192455637 990182363 990182364 87496070 1118647679 1118647680 1192229886 1192229887 1192229885 1192450270 1192450271 1192229893 1192229888 1192229889 -87509426 87509497 -87509497" color="white">
			<stop busStop="busStop_87498887_0_336" duration="1"/>
			<stop busStop="busStop_87498784_0_338" duration="1"/>
			<stop busStop="busStop_724069058_0_341" duration="1"/>
			<stop busStop="busStop_1118549059_0_651" duration="1"/>
			<stop busStop="busStop_1118550701_0_652" duration="1"/>
			<stop busStop="busStop_-1118584117_0_653" duration="1"/>
			<stop busStop="busStop_1118670601_0_654" duration="1"/>
			<stop busStop="busStop_-772824793_0_655" duration="1"/>
			<stop busStop="busStop_-87498649_0_656" duration="1"/>
			<stop busStop="busStop_-87498705_0_657" duration="1"/>
			<stop busStop="busStop_1192565102_0_2" duration="1"/>
			<stop busStop="busStop_87497372_0_3" duration="1"/>
			<stop busStop="busStop_87497307_0_4" duration="1"/>
			<stop busStop="busStop_87497134_0_5" duration="1"/>
			<stop busStop="busStop_1118575023_0_6" duration="1"/>
			<stop busStop="busStop_1192455637_0_9" duration="1"/>
			<stop busStop="busStop_990182364_0_10" duration="1"/>
			<stop busStop="busStop_87509497_0_12" duration="1"/>
			<stop busStop="busStop_-1192229889_0_11" duration="1"/>
			<stop busStop="busStop_-989259915_0_8" duration="1"/>
			<stop busStop="busStop_-1074719312_0_7" duration="1"/>
			<stop busStop="busStop_-1118577180_0_1" duration="1"/>
			<stop busStop="busStop_-1118577182_0_0" duration="1"/>
			<stop busStop="busStop_87498614_0_648" duration="1"/>
			<stop busStop="busStop_1129329038_0_647" duration="1"/>
			<stop busStop="busStop_-87498497_0_646" duration="1"/>
			<stop busStop="busStop_-87498497_0_643" duration="1"/>
			<stop busStop="busStop_-87498500_0_642" duration="1"/>
			<stop busStop="busStop_-1118460569_0_124" duration="1"/>
		</route>	

    	<route id="eastdale" edges="-87498109 -87498129 -87498229 -87498305 -772359327 -772359326 -1191285454 -1191285453 -1191285450 -1191285449 -87498763 -87498771 -87498860 -87498906 -1118583375 -1118583374 -87499043 -87499192 -87499230 -87499314 -87499444 -87499605 -1078918923 -1078918922 -87499858 -1118656264 -1118656263 -1118656268 -1118656267 -1191184804 -1191184803 -87509355 -87509354 -772395841 -772395840 -1192842973 -1192842972 -87500703 -87500752 -87500839 -87501080 -772395843 -772395842 -87501370 -772395845 -772395844 -738166538 -738166537 1118585406 1118585407 1191060174 1191060175 87501518 87501460 87501203 87508894 87508895 87500894 87500837 87500709 87500585 87500394 87500309 1191184803 1191184804 1118656267 1118656268 1118656263 1118656264 87499858 1078918922 1078918923 87499605 87499444 87499314 87499230 87499192 87499043 1118583374 1118583375 -1118583370 -1118583369 772356563 -772356562 -87498930 -1191184810 -1191184809 -1192559188 -1192559190 -1192559189 -87499116 -87499261 -1192559187 -1192559186 -1192404147 -1192404146 -1192559185 -1192559184 -87506419 1118601291 1118601292 1118601290 -724078688 -1118601287 -1118601289 -1118601288 -87499496 -772399517 -772399521 -772399520 -772399519 -772399518 87499989 87499928 87499847 87499808 87499749 87499711 772359319 772359320 772359321 1118603482 1118603483 87506419 1192559184 1192559185 1192404146 1192404147 1192559186 1192559187 87499261 87499116 1192559189 1192559190 1192559188 1191184809 1191184810 87498930 772356562 -772356563 1118583369 1118583370 1118583372 1118583373 1118583371 -772356576 -772356575 87498842 87498715 87498657 87498613 87498572 87498565 87498489 87498383 799482664 799482665 87498262 87498208 87498100 87497855 87497745 87497721 87497714 772356566 772356566 1191184787 1191184788 1191184793 1191184794 1191184801 1191184802 87497397 1191184807 1191184808 772356569 772356570 772356568 87497090 -772875164 -772875166 -772875165 -87497390 -772875181 -772875180 -87497514 -87497583 -1191285456 -1191285455 -925476009 -1192400117 -1192400116 -1192400115 -1191285451 -87498026 -87498045 -87498109" color="yellow">
    		<stop busStop="busStop_87497397_0_861" duration="1"/>									    
			<stop busStop="busStop_-87497390_0_887" duration="1"/>									    
			<stop busStop="busStop_-772875180_0_888" duration="1"/>									    
			<stop busStop="busStop_-87497583_0_889" duration="1"/>									    
			<stop busStop="busStop_-925476009_0_890" duration="1"/>									    
			<stop busStop="busStop_-87498026_0_891" duration="1"/>									    
			<stop busStop="busStop_-87498045_0_892" duration="1"/>									    
			<stop busStop="busStop_-87498305_0_893" duration="1"/>									    
			<stop busStop="busStop_-1191285450_0_894" duration="1"/>									    
			<stop busStop="busStop_-87498763_0_895" duration="1"/>									    
			<stop busStop="busStop_-87498860_0_896" duration="1"/>									    
			<stop busStop="busStop_-1118583374_0_914" duration="1"/>									    
			<stop busStop="busStop_-87499230_0_917" duration="1"/>									    
			<stop busStop="busStop_-87499314_0_918" duration="1"/>									    
			<stop busStop="busStop_-87499444_0_919" duration="1"/>									    
			<stop busStop="busStop_-87499605_0_920" duration="1"/>									    
			<stop busStop="busStop_-87499858_0_921" duration="1"/>									    
			<stop busStop="busStop_-1118656263_0_922" duration="1"/>									    
			<stop busStop="busStop_-1118656268_0_923" duration="1"/>									    
			<stop busStop="busStop_-1118656267_0_924" duration="1"/>									    
			<stop busStop="busStop_-1191184804_0_925" duration="1"/>									    
			<stop busStop="busStop_-87509355_0_926" duration="1"/>									    
			<stop busStop="busStop_-87509354_0_927" duration="1"/>									    
			<stop busStop="busStop_-1192842972_0_929" duration="1"/>									    
			<stop busStop="busStop_-87500839_0_931" duration="1"/>									    
			<stop busStop="busStop_-87501080_0_933" duration="1"/>									    
			<stop busStop="busStop_-738166538_0_934" duration="1"/>									    
			<stop busStop="busStop_1118585406_0_944" duration="1"/>									    
			<stop busStop="busStop_87501518_0_942" duration="1"/>									    
			<stop busStop="busStop_1118583375_0_915" duration="1"/>									    
			<stop busStop="busStop_-1118583369_0_899" duration="1"/>									    
			<stop busStop="busStop_-772356562_0_901" duration="1"/>									    
			<stop busStop="busStop_-1191184810_0_1059" duration="1"/>									    
			<stop busStop="busStop_-1192559189_0_1061" duration="1"/>									    
			<stop busStop="busStop_-87499261_0_1062" duration="1"/>									    
			<stop busStop="busStop_-1192404146_0_1064" duration="1"/>									    
			<stop busStop="busStop_1192559185_0_1065" duration="1"/>									    