<?xml version="1.0" encoding="UTF-8"?>

<!-- generated on Fri 06 Dec 2019 09:54:32 AM EST by Eclipse SUMO netedit Version 1.3.1
<configuration xmlns:xsi="http://www.w3.org/2001/XMLSchema-instance" xsi:noNamespaceSchemaLocation="http://sumo.dlr.de/xsd/netconvertConfiguration.xsd">

    <input>
        <sumo-net-file value="cartaFinal.net.xml"/>
    </input>

    <output>
        <output-file value="cartaFinal.net.xml"/>
    </output>

    <processing>
        <geometry.max-grade.fix value="false"/>
        <offset.disable-normalization value="true"/>
        <opposites.guess.fix-lengths value="true"/>
        <lefthand value="false"/>
    </processing>

    <junctions>
        <no-turnarounds value="true"/>
        <junctions.corner-detail value="5"/>
        <junctions.limit-turn-speed value="5.5"/>
        <rectangular-lane-cut value="false"/>
    </junctions>

    <pedestrian>
        <walkingareas value="false"/>
    </pedestrian>

    <netedit>
        <additional-files value="/home/cuip/Mobility-Simulation/stops.add.xml"/>
    </netedit>

</configuration>
-->

<additional xmlns:xsi="http://www.w3.org/2001/XMLSchema-instance" xsi:noNamespaceSchemaLocation="http://sumo.dlr.de/xsd/additional_file.xsd">
    <busStop id="busStop_10838_0_23" lane="10838_0" startPos="103.58" endPos="113.58"/>
    <busStop id="busStop_10838_0_24" lane="10838_0" startPos="11.32" endPos="21.32"/>
    <busStop id="busStop_10839_0_22" lane="10839_0" startPos="105.69" endPos="105.80"/>
    <busStop id="busStop_12171_0_13" lane="12171_0" startPos="103.02" endPos="113.02"/>
    <busStop id="busStop_12172_0_12" lane="12172_0" startPos="88.18" endPos="98.18"/>
    <busStop id="busStop_2519_0_16" lane="2519_0" startPos="29.88" endPos="39.88"/>
    <busStop id="busStop_2519_0_17" lane="2519_0" startPos="111.85" endPos="121.85"/>
    <busStop id="busStop_2540.63_0_0" lane="2540.63_0" startPos="43.29" endPos="50.45"/>
    <busStop id="busStop_2541_0_10" lane="2541_0" startPos="111.70" endPos="121.70"/>
    <busStop id="busStop_2541_0_11" lane="2541_0" startPos="225.96" endPos="235.96"/>
    <busStop id="busStop_3666_0_8" lane="3666_0" startPos="233.00" endPos="243.00"/>
    <busStop id="busStop_6309_0_21" lane="6309_0" startPos="85.40" endPos="91.73"/>
    <busStop id="busStop_gneE180_0_2" lane="gneE180_0" startPos="88.08" endPos="98.08"/>
    <busStop id="busStop_gneE181_0_1" lane="gneE181_0" startPos="90.75" endPos="100.75"/>
    <busStop id="busStop_gneE182_0_25" lane="gneE182_0" startPos="192.13" endPos="202.13"/>
    <busStop id="busStop_gneE183_0_26" lane="gneE183_0" startPos="88.30" endPos="98.30"/>
    <busStop id="busStop_gneE48_0_3" lane="gneE48_0" startPos="49.87" endPos="59.87"/>
    <busStop id="busStop_gneE49_0_4" lane="gneE49_0" startPos="12.14" endPos="22.14"/>
    <busStop id="busStop_gneE50_0_5" lane="gneE50_0" startPos="76.39" endPos="86.39"/>
    <busStop id="busStop_gneE52_0_7" lane="gneE52_0" startPos="39.51" endPos="49.51"/>
    <busStop id="busStop_gneE53_0_6" lane="gneE53_0" startPos="76.07" endPos="86.07"/>
    <busStop id="busStop_gneE71_0_0" lane="gneE71_0" startPos="166.65" endPos="176.65"/>
    <busStop id="busStop_gneE78_0_18" lane="gneE78_0" startPos="87.78" endPos="97.78"/>
    <busStop id="busStop_gneE78_0_19" lane="gneE78_0" startPos="319.16" endPos="329.16"/>
    <busStop id="busStop_gneE79_0_20" lane="gneE79_0" startPos="97.04" endPos="107.04"/>
    <busStop id="busStop_gneE93_0_14" lane="gneE93_0" startPos="16.52" endPos="26.52"/>
    <busStop id="busStop_gneE93_0_15" lane="gneE93_0" startPos="210.57" endPos="220.57"/>
    <busStop id="busStop_gneE6_0_1" lane="gneE6_0" startPos="109.49" endPos="119.49"/>
    <busStop id="busStop_gneE7_0_2" lane="gneE7_0" startPos="92.71" endPos="99.55"/>
    <busStop id="busStop_gneE85_0_0" lane="gneE85_0" startPos="84.67" endPos="84.78"/>
</additional>
