<?xml version="1.0" encoding="UTF-8"?>

<!-- generated on Tue 17 Dec 2019 02:18:29 PM EST by Eclipse SUMO netedit Version 1.3.1
<configuration xmlns:xsi="http://www.w3.org/2001/XMLSchema-instance" xsi:noNamespaceSchemaLocation="http://sumo.dlr.de/xsd/netconvertConfiguration.xsd">

    <input>
        <sumo-net-file value="final.net.xml"/>
    </input>

    <output>
        <output-file value="final.net.xml"/>
    </output>

    <processing>
        <geometry.max-grade.fix value="false"/>
        <offset.disable-normalization value="true"/>
        <opposites.guess.fix-lengths value="true"/>
        <lefthand value="false"/>
    </processing>

    <junctions>
        <no-turnarounds value="true"/>
        <junctions.corner-detail value="5"/>
        <junctions.limit-turn-speed value="5.5"/>
        <rectangular-lane-cut value="false"/>
    </junctions>

    <pedestrian>
        <walkingareas value="false"/>
    </pedestrian>

    <netedit>
        <additional-files value="/home/cuip/Mobility-Simulation/stopCarta.add.xml"/>
    </netedit>

</configuration>
-->

<additional xmlns:xsi="http://www.w3.org/2001/XMLSchema-instance" xsi:noNamespaceSchemaLocation="http://sumo.dlr.de/xsd/additional_file.xsd">
    <busStop id="busStop_-1000285932_0_22" lane="-1000285932_0" startPos="103.70" endPos="113.70"/>
    <busStop id="busStop_-1047818013_0_486" lane="-1047818013_0" startPos="46.15" endPos="56.15"/>
    <busStop id="busStop_-1047818027_0_484" lane="-1047818027_0" startPos="1.04" endPos="3.04" personCapacity="2"/>
    <busStop id="busStop_-1054475961_0_948" lane="-1054475961_0" startPos="161.59" endPos="171.59"/>
    <busStop id="busStop_-1058747473_0_984" lane="-1058747473_0" startPos="77.78" endPos="87.78"/>
    <busStop id="busStop_-1062710056_0_1022" lane="-1062710056_0" startPos="24.40" endPos="34.40"/>
    <busStop id="busStop_-1074467764_0_186" lane="-1074467764_0" startPos="21.74" endPos="31.74"/>
    <busStop id="busStop_-1074509501_0_386" lane="-1074509501_0" startPos="8.46" endPos="18.46"/>
    <busStop id="busStop_-1074719312_0_7" lane="-1074719312_0" startPos="14.32" endPos="24.32"/>
    <busStop id="busStop_-1083954735_0_911" lane="-1083954735_0" startPos="281.55" endPos="291.55"/>
    <busStop id="busStop_-1112816221_0_117" lane="-1112816221_0" startPos="59.84" endPos="69.84"/>
    <busStop id="busStop_-1118111115_0_531" lane="-1118111115_0" startPos="21.92" endPos="31.92"/>
    <busStop id="busStop_-1118119300_0_188" lane="-1118119300_0" startPos="27.19" endPos="37.19"/>
    <busStop id="busStop_-1118126226_0_176" lane="-1118126226_0" startPos="37.13" endPos="47.13"/>
    <busStop id="busStop_-1118126227_0_175" lane="-1118126227_0" startPos="31.24" endPos="41.24"/>
    <busStop id="busStop_-1118178858_0_513" lane="-1118178858_0" startPos="70.00" endPos="80.00"/>
    <busStop id="busStop_-1118240005_0_373" lane="-1118240005_0" startPos="21.65" endPos="31.65"/>
    <busStop id="busStop_-1118240007_0_317" lane="-1118240007_0" startPos="47.28" endPos="57.28"/>
    <busStop id="busStop_-1118240009_0_319" lane="-1118240009_0" startPos="18.14" endPos="28.14"/>
    <busStop id="busStop_-1118243306_0_281" lane="-1118243306_0" startPos="11.82" endPos="21.82"/>
    <busStop id="busStop_-1118247283_0_305" lane="-1118247283_0" startPos="17.34" endPos="27.34"/>
    <busStop id="busStop_-1118257007_0_194" lane="-1118257007_0" startPos="28.51" endPos="38.51"/>
    <busStop id="busStop_-1118284492_0_379" lane="-1118284492_0" startPos="21.38" endPos="31.38"/>
    <busStop id="busStop_-1118325484_0_307" lane="-1118325484_0" startPos="21.80" endPos="31.80"/>
    <busStop id="busStop_-1118355413_0_397" lane="-1118355413_0" startPos="37.95" endPos="47.95"/>
    <busStop id="busStop_-1118355415_0_398" lane="-1118355415_0" startPos="58.44" endPos="68.44"/>
    <busStop id="busStop_-1118358513_0_407" lane="-1118358513_0" startPos="14.16" endPos="24.16"/>
    <busStop id="busStop_-1118367069_0_470" lane="-1118367069_0" startPos="32.80" endPos="42.80"/>
    <busStop id="busStop_-1118381920_0_163" lane="-1118381920_0" startPos="8.43" endPos="18.43"/>
    <busStop id="busStop_-1118421093_0_13" lane="-1118421093_0" startPos="12.73" endPos="22.73"/>
    <busStop id="busStop_-1118424035_0_15" lane="-1118424035_0" startPos="20.57" endPos="30.57"/>
    <busStop id="busStop_-1118460569_0_124" lane="-1118460569_0" startPos="28.05" endPos="38.05"/>
    <busStop id="busStop_-1118479260_0_671" lane="-1118479260_0" startPos="59.13" endPos="69.13"/>
    <busStop id="busStop_-1118482327_0_669" lane="-1118482327_0" startPos="10.08" endPos="20.08"/>
    <busStop id="busStop_-1118482809_0_649" lane="-1118482809_0" startPos="4.73" endPos="14.73"/>
    <busStop id="busStop_-1118500334_0_624" lane="-1118500334_0" startPos="8.96" endPos="18.96"/>
    <busStop id="busStop_-1118500335_0_623" lane="-1118500335_0" startPos="2.75" endPos="12.75"/>
    <busStop id="busStop_-1118510360_0_555" lane="-1118510360_0" startPos="34.46" endPos="44.46"/>
    <busStop id="busStop_-1118535959_0_122" lane="-1118535959_0" startPos="33.34" endPos="39.44"/>
    <busStop id="busStop_-1118544302_0_712" lane="-1118544302_0" startPos="53.62" endPos="63.62"/>
    <busStop id="busStop_-1118544612_0_330" lane="-1118544612_0" startPos="10.30" endPos="20.30"/>
    <busStop id="busStop_-1118549225_0_488" lane="-1118549225_0" startPos="30.66" endPos="40.66"/>
    <busStop id="busStop_-1118549716_0_728" lane="-1118549716_0" startPos="6.52" endPos="16.52"/>
    <busStop id="busStop_-1118552039_0_725" lane="-1118552039_0" startPos="31.21" endPos="41.21"/>
    <busStop id="busStop_-1118555873_0_676" lane="-1118555873_0" startPos="60.47" endPos="70.47"/>
    <busStop id="busStop_-1118558393_0_447" lane="-1118558393_0" startPos="5.81" endPos="15.81"/>
    <busStop id="busStop_-1118558645_0_772" lane="-1118558645_0" startPos="35.45" endPos="45.45"/>
    <busStop id="busStop_-1118558658_0_707" lane="-1118558658_0" startPos="14.64" endPos="24.64"/>
    <busStop id="busStop_-1118561462_0_132" lane="-1118561462_0" startPos="41.80" endPos="51.80"/>
    <busStop id="busStop_-1118564715_0_936" lane="-1118564715_0" startPos="19.84" endPos="29.84"/>
    <busStop id="busStop_-1118564719_0_937" lane="-1118564719_0" startPos="52.76" endPos="62.76"/>
    <busStop id="busStop_-1118565549_0_778" lane="-1118565549_0" startPos="29.04" endPos="39.04"/>
    <busStop id="busStop_-1118566418_0_448" lane="-1118566418_0" startPos="19.10" endPos="29.10"/>
    <busStop id="busStop_-1118569869_0_780" lane="-1118569869_0" startPos="8.44" endPos="18.44"/>
    <busStop id="busStop_-1118574234_0_790" lane="-1118574234_0" startPos="35.29" endPos="45.29"/>
    <busStop id="busStop_-1118577180_0_1" lane="-1118577180_0" startPos="26.11" endPos="36.11"/>
    <busStop id="busStop_-1118577182_0_0" lane="-1118577182_0" startPos="121.98" endPos="131.98"/>
    <busStop id="busStop_-1118579727_0_444" lane="-1118579727_0" startPos="21.06" endPos="31.06"/>
    <busStop id="busStop_-1118579729_0_443" lane="-1118579729_0" startPos="18.64" endPos="28.64"/>
    <busStop id="busStop_-1118579853_0_792" lane="-1118579853_0" startPos="123.41" endPos="133.41"/>
    <busStop id="busStop_-1118583369_0_899" lane="-1118583369_0" startPos="42.17" endPos="52.17"/>
    <busStop id="busStop_-1118583373_0_897" lane="-1118583373_0" startPos="49.17" endPos="59.17"/>
    <busStop id="busStop_-1118583374_0_914" lane="-1118583374_0" startPos="7.60" endPos="17.60"/>
    <busStop id="busStop_-1118584117_0_653" lane="-1118584117_0" startPos="17.66" endPos="27.66"/>
    <busStop id="busStop_-1118584369_0_763" lane="-1118584369_0" startPos="3.60" endPos="13.60"/>
    <busStop id="busStop_-1118585410_0_945" lane="-1118585410_0" startPos="12.85" endPos="22.85"/>
    <busStop id="busStop_-1118601291_0_1066" lane="-1118601291_0" startPos="47.03" endPos="57.03"/>
    <busStop id="busStop_-1118609216_0_976" lane="-1118609216_0" startPos="14.00" endPos="24.00"/>
    <busStop id="busStop_-1118611589_0_1000" lane="-1118611589_0" startPos="2.79" endPos="12.79"/>
    <busStop id="busStop_-1118611595_0_998" lane="-1118611595_0" startPos="63.44" endPos="73.44"/>
    <busStop id="busStop_-1118611604_0_979" lane="-1118611604_0" startPos="119.56" endPos="129.56"/>
    <busStop id="busStop_-1118611604_0_981" lane="-1118611604_0" startPos="9.61" endPos="19.61"/>
    <busStop id="busStop_-1118617521_0_968" lane="-1118617521_0" startPos="20.39" endPos="30.39"/>
    <busStop id="busStop_-1118618212_0_970" lane="-1118618212_0" startPos="56.57" endPos="66.57"/>
    <busStop id="busStop_-1118620981_0_872" lane="-1118620981_0" startPos="27.63" endPos="37.63"/>
    <busStop id="busStop_-1118647499_0_78" lane="-1118647499_0" startPos="38.95" endPos="48.95"/>
    <busStop id="busStop_-1118647503_0_73" lane="-1118647503_0" startPos="112.43" endPos="122.43"/>
    <busStop id="busStop_-1118647503_0_76" lane="-1118647503_0" startPos="10.51" endPos="20.51"/>
    <busStop id="busStop_-1118652243_0_92" lane="-1118652243_0" startPos="15.91" endPos="23.77"/>
    <busStop id="busStop_-1118652246_0_94" lane="-1118652246_0" startPos="9.36" endPos="19.36"/>
    <busStop id="busStop_-1118656263_0_922" lane="-1118656263_0" startPos="24.93" endPos="34.93"/>
    <busStop id="busStop_-1118656267_0_924" lane="-1118656267_0" startPos="99.67" endPos="109.67"/>
    <busStop id="busStop_-1118656268_0_923" lane="-1118656268_0" startPos="20.53" endPos="30.53"/>
    <busStop id="busStop_-1118656743_0_103" lane="-1118656743_0" startPos="24.84" endPos="34.26"/>
    <busStop id="busStop_-1118656747_0_105" lane="-1118656747_0" startPos="38.54" endPos="47.78"/>
    <busStop id="busStop_-1118657792_0_954" lane="-1118657792_0" startPos="12.12" endPos="22.12"/>
    <busStop id="busStop_-1118657794_0_956" lane="-1118657794_0" startPos="168.19" endPos="178.19"/>
    <busStop id="busStop_-1118663562_0_99" lane="-1118663562_0" startPos="59.90" endPos="69.90"/>
    <busStop id="busStop_-1118872227_0_135" lane="-1118872227_0" startPos="15.08" endPos="25.08"/>
    <busStop id="busStop_-1119004827_0_1003" lane="-1119004827_0" startPos="23.48" endPos="33.48"/>
    <busStop id="busStop_-1119070086_0_1013" lane="-1119070086_0" startPos="39.49" endPos="49.49"/>
    <busStop id="busStop_-1119072292_0_1012" lane="-1119072292_0" startPos="10.54" endPos="20.54"/>
    <busStop id="busStop_-1119076458_0_1020" lane="-1119076458_0" startPos="84.30" endPos="94.30"/>
    <busStop id="busStop_-1119082140_0_1018" lane="-1119082140_0" startPos="42.22" endPos="52.22"/>
    <busStop id="busStop_-1119142278_0_1046" lane="-1119142278_0" startPos="7.56" endPos="17.56"/>
    <busStop id="busStop_-1119145112_0_1053" lane="-1119145112_0" startPos="71.27" endPos="81.27"/>
    <busStop id="busStop_-1119252260_0_1077" lane="-1119252260_0" startPos="11.86" endPos="21.86"/>
    <busStop id="busStop_-1119328496_0_310" lane="-1119328496_0" startPos="11.55" endPos="21.55"/>
    <busStop id="busStop_-1123922718_0_37" lane="-1123922718_0" startPos="6.65" endPos="16.65"/>
    <busStop id="busStop_-1126606328_0_752" lane="-1126606328_0" startPos="13.85" endPos="23.85"/>
    <busStop id="busStop_-1143242831_0_370" lane="-1143242831_0" startPos="8.53" endPos="18.53"/>
    <busStop id="busStop_-1143242832_0_369" lane="-1143242832_0" startPos="34.94" endPos="44.94"/>
    <busStop id="busStop_-1143246446_0_834" lane="-1143246446_0" startPos="87.40" endPos="97.40"/>
    <busStop id="busStop_-1143258234_0_200" lane="-1143258234_0" startPos="136.58" endPos="146.58"/>
    <busStop id="busStop_-1143258234_0_202" lane="-1143258234_0" startPos="28.46" endPos="38.46"/>
    <busStop id="busStop_-1143258235_0_204" lane="-1143258235_0" startPos="29.69" endPos="39.69"/>
    <busStop id="busStop_-1143258237_0_206" lane="-1143258237_0" startPos="51.04" endPos="61.04"/>
    <busStop id="busStop_-1143258241_0_199" lane="-1143258241_0" startPos="22.33" endPos="32.33"/>
    <busStop id="busStop_-1143263059_0_468" lane="-1143263059_0" startPos="132.79" endPos="142.79"/>
    <busStop id="busStop_-1189495129_0_286" lane="-1189495129_0" startPos="41.01" endPos="51.01"/>
    <busStop id="busStop_-1189495131_0_287" lane="-1189495131_0" startPos="49.84" endPos="59.84"/>
    <busStop id="busStop_-1191012137_0_767" lane="-1191012137_0" startPos="48.76" endPos="58.76"/>
    <busStop id="busStop_-1191012138_0_798" lane="-1191012138_0" startPos="12.65" endPos="22.65"/>
    <busStop id="busStop_-1191012148_0_796" lane="-1191012148_0" startPos="46.63" endPos="56.63"/>
    <busStop id="busStop_-1191012149_0_797" lane="-1191012149_0" startPos="0.96" endPos="10.96"/>
    <busStop id="busStop_-1191012155_0_758" lane="-1191012155_0" startPos="38.35" endPos="48.35"/>
    <busStop id="busStop_-1191012157_0_774" lane="-1191012157_0" startPos="363.31" endPos="373.31"/>
    <busStop id="busStop_-1191060175_0_943" lane="-1191060175_0" startPos="14.51" endPos="24.51"/>
    <busStop id="busStop_-1191184796_0_748" lane="-1191184796_0" startPos="56.33" endPos="66.33"/>
    <busStop id="busStop_-1191184798_0_858" lane="-1191184798_0" startPos="5.04" endPos="15.04"/>
    <busStop id="busStop_-1191184804_0_925" lane="-1191184804_0" startPos="1.46" endPos="11.46"/>
    <busStop id="busStop_-1191184805_0_750" lane="-1191184805_0" startPos="75.10" endPos="85.10"/>
    <busStop id="busStop_-1191184807_0_862" lane="-1191184807_0" startPos="6.08" endPos="16.08"/>
    <busStop id="busStop_-1191184810_0_1059" lane="-1191184810_0" startPos="88.88" endPos="98.88"/>
    <busStop id="busStop_-1191185945_0_62" lane="-1191185945_0" startPos="7.70" endPos="17.70"/>
    <busStop id="busStop_-1191218530_0_777" lane="-1191218530_0" startPos="74.89" endPos="84.89"/>
    <busStop id="busStop_-1191238936_0_1038" lane="-1191238936_0" startPos="3.11" endPos="13.11"/>
    <busStop id="busStop_-1191251458_0_24" lane="-1191251458_0" startPos="33.32" endPos="43.32"/>
    <busStop id="busStop_-1191268165_0_713" lane="-1191268165_0" startPos="3.69" endPos="13.69"/>
    <busStop id="busStop_-1191268165_0_715" lane="-1191268165_0" startPos="64.26" endPos="74.26"/>
    <busStop id="busStop_-1191272761_0_717" lane="-1191272761_0" startPos="-0.31" endPos="9.69"/>
    <busStop id="busStop_-1191272762_0_718" lane="-1191272762_0" startPos="62.65" endPos="72.65"/>
    <busStop id="busStop_-1191285450_0_894" lane="-1191285450_0" startPos="2.25" endPos="12.25"/>
    <busStop id="busStop_-1191286488_0_1045" lane="-1191286488_0" startPos="5.92" endPos="15.92"/>
    <busStop id="busStop_-1191831098_0_806" lane="-1191831098_0" startPos="2.42" endPos="12.42"/>
    <busStop id="busStop_-1191914473_0_805" lane="-1191914473_0" startPos="74.57" endPos="84.57"/>
    <busStop id="busStop_-1192000005_0_147" lane="-1192000005_0" startPos="71.35" endPos="80.43"/>
    <busStop id="busStop_-1192000465_0_384" lane="-1192000465_0" startPos="26.33" endPos="36.33"/>
    <busStop id="busStop_-1192012147_0_769" lane="-1192012147_0" startPos="82.92" endPos="92.92"/>
    <busStop id="busStop_-1192013908_0_151" lane="-1192013908_0" startPos="41.68" endPos="51.68"/>
    <busStop id="busStop_-1192099380_0_140" lane="-1192099380_0" startPos="27.36" endPos="37.36"/>
    <busStop id="busStop_-1192099383_0_138" lane="-1192099383_0" startPos="37.22" endPos="47.22"/>
    <busStop id="busStop_-1192229889_0_11" lane="-1192229889_0" startPos="49.78" endPos="59.78"/>
    <busStop id="busStop_-1192401338_0_694" lane="-1192401338_0" startPos="54.82" endPos="64.82"/>
    <busStop id="busStop_-1192401348_0_392" lane="-1192401348_0" startPos="8.34" endPos="18.34"/>
    <busStop id="busStop_-1192402191_0_703" lane="-1192402191_0" startPos="52.31" endPos="62.31"/>
    <busStop id="busStop_-1192402553_0_226" lane="-1192402553_0" startPos="32.41" endPos="42.41"/>
    <busStop id="busStop_-1192402554_0_225" lane="-1192402554_0" startPos="25.43" endPos="35.43"/>
    <busStop id="busStop_-1192402808_0_228" lane="-1192402808_0" startPos="139.59" endPos="149.59"/>
    <busStop id="busStop_-1192404126_0_236" lane="-1192404126_0" startPos="16.80" endPos="26.80"/>
    <busStop id="busStop_-1192404131_0_184" lane="-1192404131_0" startPos="136.70" endPos="146.70"/>
    <busStop id="busStop_-1192404146_0_1064" lane="-1192404146_0" startPos="10.99" endPos="20.99"/>
    <busStop id="busStop_-1192404952_0_69" lane="-1192404952_0" startPos="5.63" endPos="15.48"/>
    <busStop id="busStop_-1192406168_0_1073" lane="-1192406168_0" startPos="438.26" endPos="448.26"/>
    <busStop id="busStop_-1192406168_0_1074" lane="-1192406168_0" startPos="725.99" endPos="735.99"/>
    <busStop id="busStop_-1192472384_0_482" lane="-1192472384_0" startPos="41.65" endPos="51.65"/>
    <busStop id="busStop_-1192474158_0_198" lane="-1192474158_0" startPos="13.98" endPos="23.98"/>
    <busStop id="busStop_-1192482975_0_696" lane="-1192482975_0" startPos="37.75" endPos="47.75"/>
    <busStop id="busStop_-1192485032_0_682" lane="-1192485032_0" startPos="12.68" endPos="22.68"/>
    <busStop id="busStop_-1192490386_0_231" lane="-1192490386_0" startPos="79.95" endPos="89.95"/>
    <busStop id="busStop_-1192498083_0_193" lane="-1192498083_0" startPos="14.95" endPos="24.95"/>
    <busStop id="busStop_-1192546039_0_693" lane="-1192546039_0" startPos="237.55" endPos="247.55"/>
    <busStop id="busStop_-1192552082_0_182" lane="-1192552082_0" startPos="141.65" endPos="151.65"/>
    <busStop id="busStop_-1192559189_0_1061" lane="-1192559189_0" startPos="87.98" endPos="97.98"/>
    <busStop id="busStop_-1192565949_0_781" lane="-1192565949_0" startPos="158.95" endPos="168.95"/>
    <busStop id="busStop_-1192635256_0_325" lane="-1192635256_0" startPos="72.28" endPos="82.28"/>
    <busStop id="busStop_-1192635256_0_326" lane="-1192635256_0" startPos="15.68" endPos="25.68"/>
    <busStop id="busStop_-1192639910_0_97" lane="-1192639910_0" startPos="78.61" endPos="88.61"/>
    <busStop id="busStop_-1192709231_0_746" lane="-1192709231_0" startPos="12.48" endPos="22.48"/>
    <busStop id="busStop_-1192712402_0_744" lane="-1192712402_0" startPos="16.77" endPos="26.77"/>
    <busStop id="busStop_-1192727600_0_677" lane="-1192727600_0" startPos="25.81" endPos="35.81"/>
    <busStop id="busStop_-1192730452_0_711" lane="-1192730452_0" startPos="1.75" endPos="11.75"/>
    <busStop id="busStop_-1192804550_0_400" lane="-1192804550_0" startPos="4.93" endPos="14.93"/>
    <busStop id="busStop_-1192842972_0_929" lane="-1192842972_0" startPos="35.02" endPos="45.02"/>
    <busStop id="busStop_-1192925137_0_297" lane="-1192925137_0" startPos="35.57" endPos="45.57"/>
    <busStop id="busStop_-1192925603_0_602" lane="-1192925603_0" startPos="11.44" endPos="21.44"/>
    <busStop id="busStop_-1192930338_0_324" lane="-1192930338_0" startPos="13.01" endPos="23.01"/>
    <busStop id="busStop_-1193180029_0_273" lane="-1193180029_0" startPos="14.78" endPos="24.78"/>
    <busStop id="busStop_-1193183138_0_278" lane="-1193183138_0" startPos="72.95" endPos="82.95"/>
    <busStop id="busStop_-1193925202_0_114" lane="-1193925202_0" startPos="71.88" endPos="81.88"/>
    <busStop id="busStop_-1196689890_0_280" lane="-1196689890_0" startPos="43.19" endPos="53.19"/>
    <busStop id="busStop_-1196689891_0_232" lane="-1196689891_0" startPos="12.11" endPos="22.11"/>
    <busStop id="busStop_-1196689913_0_276" lane="-1196689913_0" startPos="54.97" endPos="64.97"/>
    <busStop id="busStop_-1198737186_0_389" lane="-1198737186_0" startPos="1.20" endPos="11.20"/>
    <busStop id="busStop_-1198737642_0_368" lane="-1198737642_0" startPos="20.77" endPos="30.77"/>
    <busStop id="busStop_-1199463667_0_991" lane="-1199463667_0" startPos="37.30" endPos="47.30"/>
    <busStop id="busStop_-124175564_0_704" lane="-124175564_0" startPos="64.07" endPos="74.07"/>
    <busStop id="busStop_-709622085_0_356" lane="-709622085_0" startPos="39.93" endPos="49.93"/>
    <busStop id="busStop_-724068207_0_508" lane="-724068207_0" startPos="119.51" endPos="129.51"/>
    <busStop id="busStop_-724069057_0_333" lane="-724069057_0" startPos="17.19" endPos="27.19"/>
    <busStop id="busStop_-724069058_0_340" lane="-724069058_0" startPos="15.29" endPos="25.29"/>
    <busStop id="busStop_-724069510_0_575" lane="-724069510_0" startPos="72.15" endPos="82.15"/>
    <busStop id="busStop_-732486893_0_1085" lane="-732486893_0" startPos="54.78" endPos="64.78"/>
    <busStop id="busStop_-737869923_0_216" lane="-737869923_0" startPos="66.87" endPos="76.87"/>
    <busStop id="busStop_-737869924_0_215" lane="-737869924_0" startPos="7.47" endPos="17.47"/>
    <busStop id="busStop_-738166538_0_934" lane="-738166538_0" startPos="36.46" endPos="46.46"/>
    <busStop id="busStop_-762055849_0_85" lane="-762055849_0" startPos="218.97" endPos="228.97"/>
    <busStop id="busStop_-772034758_0_431" lane="-772034758_0" startPos="43.27" endPos="53.27"/>
    <busStop id="busStop_-772034761_0_430" lane="-772034761_0" startPos="2.46" endPos="12.46"/>
    <busStop id="busStop_-772037406_0_608" lane="-772037406_0" startPos="52.35" endPos="62.35"/>
    <busStop id="busStop_-772039423_0_1006" lane="-772039423_0" startPos="168.79" endPos="178.79"/>
    <busStop id="busStop_-772089089_0_885" lane="-772089089_0" startPos="41.22" endPos="51.22"/>
    <busStop id="busStop_-772092706_0_754" lane="-772092706_0" startPos="1.89" endPos="11.89"/>
    <busStop id="busStop_-772341826_0_692" lane="-772341826_0" startPos="9.31" endPos="19.31"/>
    <busStop id="busStop_-772341828_0_686" lane="-772341828_0" startPos="66.03" endPos="76.03"/>
    <busStop id="busStop_-772341830_0_681" lane="-772341830_0" startPos="14.36" endPos="24.36"/>
    <busStop id="busStop_-772341831_0_679" lane="-772341831_0" startPos="12.79" endPos="22.79"/>
    <busStop id="busStop_-772341832_0_663" lane="-772341832_0" startPos="72.25" endPos="82.25"/>
    <busStop id="busStop_-772356562_0_901" lane="-772356562_0" startPos="28.36" endPos="38.36"/>
    <busStop id="busStop_-772356563_0_900" lane="-772356563_0" startPos="21.85" endPos="31.85"/>
    <busStop id="busStop_-772356568_0_863" lane="-772356568_0" startPos="7.29" endPos="17.29"/>
    <busStop id="busStop_-772356575_0_905" lane="-772356575_0" startPos="51.83" endPos="61.83"/>
    <busStop id="busStop_-772356576_0_904" lane="-772356576_0" startPos="136.83" endPos="146.83"/>
    <busStop id="busStop_-772403998_0_966" lane="-772403998_0" startPos="77.78" endPos="87.78"/>
    <busStop id="busStop_-772406532_0_196" lane="-772406532_0" startPos="74.64" endPos="84.64"/>
    <busStop id="busStop_-772407309_0_302" lane="-772407309_0" startPos="8.04" endPos="18.04"/>
    <busStop id="busStop_-772407315_0_179" lane="-772407315_0" startPos="8.40" endPos="18.40"/>
    <busStop id="busStop_-772775908_0_288" lane="-772775908_0" startPos="13.44" endPos="23.44"/>
    <busStop id="busStop_-772776973_0_279" lane="-772776973_0" startPos="152.92" endPos="162.92"/>
    <busStop id="busStop_-772817081_0_969" lane="-772817081_0" startPos="7.52" endPos="17.52"/>
    <busStop id="busStop_-772819825_0_377" lane="-772819825_0" startPos="48.76" endPos="58.76"/>
    <busStop id="busStop_-772824487_0_161" lane="-772824487_0" startPos="47.31" endPos="57.31"/>
    <busStop id="busStop_-772824491_0_164" lane="-772824491_0" startPos="44.28" endPos="54.28"/>
    <busStop id="busStop_-772824792_0_343" lane="-772824792_0" startPos="11.39" endPos="21.39"/>
    <busStop id="busStop_-772824793_0_655" lane="-772824793_0" startPos="12.72" endPos="22.72"/>
    <busStop id="busStop_-772852174_0_559" lane="-772852174_0" startPos="31.45" endPos="41.45"/>
    <busStop id="busStop_-772875180_0_888" lane="-772875180_0" startPos="81.14" endPos="91.14"/>
    <busStop id="busStop_-772876717_0_868" lane="-772876717_0" startPos="0.69" endPos="10.69"/>
    <busStop id="busStop_-772907217_0_96" lane="-772907217_0" startPos="35.36" endPos="45.36"/>
    <busStop id="busStop_-772911814_0_882" lane="-772911814_0" startPos="458.70" endPos="468.70"/>
    <busStop id="busStop_-772913613_0_64" lane="-772913613_0" startPos="172.12" endPos="182.12"/>
    <busStop id="busStop_-772913625_0_52" lane="-772913625_0" startPos="27.90" endPos="37.90"/>
    <busStop id="busStop_-772913628_0_59" lane="-772913628_0" startPos="12.22" endPos="22.22"/>
    <busStop id="busStop_-773014324_0_1050" lane="-773014324_0" startPos="137.31" endPos="147.31"/>
    <busStop id="busStop_-799520671_0_886" lane="-799520671_0" startPos="104.52" endPos="114.52"/>
    <busStop id="busStop_-799569021_0_1032" lane="-799569021_0" startPos="2.03" endPos="12.03"/>
    <busStop id="busStop_-799933359_0_1047" lane="-799933359_0" startPos="135.48" endPos="145.48"/>
    <busStop id="busStop_-801451112_0_238" lane="-801451112_0" startPos="167.74" endPos="177.74"/>
    <busStop id="busStop_-862701374_0_1072" lane="-862701374_0" startPos="669.52" endPos="679.52"/>
    <busStop id="busStop_-868844984_0_1029" lane="-868844984_0" startPos="150.88" endPos="160.88"/>
    <busStop id="busStop_-868849980_0_1025" lane="-868849980_0" startPos="9.70" endPos="19.70"/>
    <busStop id="busStop_-868849984_0_1026" lane="-868849984_0" startPos="33.07" endPos="43.07"/>
    <busStop id="busStop_-868851567_0_1030" lane="-868851567_0" startPos="96.83" endPos="106.83"/>
    <busStop id="busStop_-87494600_0_110" lane="-87494600_0" startPos="215.75" endPos="225.75"/>
    <busStop id="busStop_-87494600_0_111" lane="-87494600_0" startPos="29.88" endPos="39.88"/>
    <busStop id="busStop_-87494761_0_108" lane="-87494761_0" startPos="54.11" endPos="64.11"/>
    <busStop id="busStop_-87494845_0_106" lane="-87494845_0" startPos="51.79" endPos="51.90"/>
    <busStop id="busStop_-87495464_0_91" lane="-87495464_0" startPos="72.57" endPos="82.57"/>
    <busStop id="busStop_-87495497_0_88" lane="-87495497_0" startPos="268.00" endPos="278.00"/>
    <busStop id="busStop_-87495657_0_83" lane="-87495657_0" startPos="79.56" endPos="79.67"/>
    <busStop id="busStop_-87495679_0_82" lane="-87495679_0" startPos="84.26" endPos="92.61"/>
    <busStop id="busStop_-87495719_0_80" lane="-87495719_0" startPos="178.41" endPos="188.41"/>
    <busStop id="busStop_-87495877_0_72" lane="-87495877_0" startPos="55.82" endPos="56.21"/>
    <busStop id="busStop_-87495901_0_71" lane="-87495901_0" startPos="14.76" endPos="16.05"/>
    <busStop id="busStop_-87495909_0_70" lane="-87495909_0" startPos="78.34" endPos="82.45"/>
    <busStop id="busStop_-87496093_0_67" lane="-87496093_0" startPos="334.66" endPos="344.66"/>
    <busStop id="busStop_-87496425_0_878" lane="-87496425_0" startPos="13.71" endPos="23.71"/>
    <busStop id="busStop_-87496464_0_875" lane="-87496464_0" startPos="304.43" endPos="314.43"/>
    <busStop id="busStop_-87497046_0_865" lane="-87497046_0" startPos="117.11" endPos="127.11"/>
    <busStop id="busStop_-87497070_0_57" lane="-87497070_0" startPos="83.00" endPos="93.00"/>
    <busStop id="busStop_-87497092_0_29" lane="-87497092_0" startPos="90.17" endPos="98.69"/>
    <busStop id="busStop_-87497281_0_26" lane="-87497281_0" startPos="161.55" endPos="161.66"/>
    <busStop id="busStop_-87497304_0_819" lane="-87497304_0" startPos="96.37" endPos="106.37"/>
    <busStop id="busStop_-87497317_0_824" lane="-87497317_0" startPos="106.50" endPos="116.50"/>
    <busStop id="busStop_-87497384_0_826" lane="-87497384_0" startPos="104.08" endPos="114.08"/>
    <busStop id="busStop_-87497390_0_887" lane="-87497390_0" startPos="184.63" endPos="194.63"/>
    <busStop id="busStop_-87497397_0_860" lane="-87497397_0" startPos="110.63" endPos="120.63"/>
    <busStop id="busStop_-87497416_0_815" lane="-87497416_0" startPos="101.17" endPos="111.17"/>
    <busStop id="busStop_-87497481_0_828" lane="-87497481_0" startPos="99.75" endPos="109.75"/>
    <busStop id="busStop_-87497528_0_50" lane="-87497528_0" startPos="51.88" endPos="51.99"/>
    <busStop id="busStop_-87497561_0_17" lane="-87497561_0" startPos="16.88" endPos="26.88"/>
    <busStop id="busStop_-87497561_0_18" lane="-87497561_0" startPos="182.12" endPos="192.12"/>
    <busStop id="busStop_-87497565_0_19" lane="-87497565_0" startPos="83.68" endPos="92.55"/>
    <busStop id="busStop_-87497582_0_830" lane="-87497582_0" startPos="92.83" endPos="102.83"/>
    <busStop id="busStop_-87497583_0_889" lane="-87497583_0" startPos="43.43" endPos="53.43"/>
    <busStop id="busStop_-87497610_0_812" lane="-87497610_0" startPos="102.53" endPos="112.53"/>
    <busStop id="busStop_-87497682_0_832" lane="-87497682_0" startPos="96.91" endPos="106.91"/>
    <busStop id="busStop_-87497687_0_48" lane="-87497687_0" startPos="25.05" endPos="25.16"/>
    <busStop id="busStop_-87497761_0_810" lane="-87497761_0" startPos="24.65" endPos="34.65"/>
    <busStop id="busStop_-87497788_0_45" lane="-87497788_0" startPos="122.89" endPos="123.22"/>
    <busStop id="busStop_-87497790_0_33" lane="-87497790_0" startPos="19.28" endPos="29.28"/>
    <busStop id="busStop_-87497810_0_35" lane="-87497810_0" startPos="96.11" endPos="96.22"/>
    <busStop id="busStop_-87497869_0_809" lane="-87497869_0" startPos="2.43" endPos="12.43"/>
    <busStop id="busStop_-87497886_0_808" lane="-87497886_0" startPos="3.51" endPos="13.51"/>
    <busStop id="busStop_-87497974_0_42" lane="-87497974_0" startPos="61.24" endPos="61.50"/>
    <busStop id="busStop_-87497990_0_14" lane="-87497990_0" startPos="187.57" endPos="196.36"/>
    <busStop id="busStop_-87498003_0_38" lane="-87498003_0" startPos="85.79" endPos="87.50"/>
    <busStop id="busStop_-87498026_0_891" lane="-87498026_0" startPos="5.63" endPos="15.63"/>
    <busStop id="busStop_-87498045_0_892" lane="-87498045_0" startPos="19.98" endPos="29.98"/>
    <busStop id="busStop_-87498061_0_40" lane="-87498061_0" startPos="9.50" endPos="19.50"/>
    <busStop id="busStop_-87498084_0_41" lane="-87498084_0" startPos="7.05" endPos="17.05"/>
    <busStop id="busStop_-87498135_0_803" lane="-87498135_0" startPos="160.47" endPos="170.47"/>
    <busStop id="busStop_-87498214_0_801" lane="-87498214_0" startPos="145.94" endPos="155.94"/>