<?xml version="1.0" encoding="UTF-8"?>
<!-- generated on 2020-08-11 19:21:12.657446 by randomTrips.py UNKNOWN
  options: -n final.net.xml <doubleminus>persontrips <doubleminus>trip-attributes modes="public"
-->
<routes xmlns:xsi="http://www.w3.org/2001/XMLSchema-instance" xsi:noNamespaceSchemaLocation="http://sumo.dlr.de/xsd/routes_file.xsd">
    <person id="0" depart="0.00">
        <personTrip from="-1118983336" to="-87504223" modes="public"/>
    </person>
    <person id="1" depart="1.00">
        <personTrip from="783637099" to="87505869" modes="public"/>
    </person>
    <person id="2" depart="2.00">
        <personTrip from="-87502249" to="87504918" modes="public"/>
    </person>
    <person id="3" depart="3.00">
        <personTrip from="-1119346621" to="-932710858" modes="public"/>
    </person>
    <person id="4" depart="4.00">
        <personTrip from="87500453" to="87500266" modes="public"/>
    </person>
    <person id="5" depart="5.00">
        <personTrip from="87503109" to="87499123" modes="public"/>
    </person>
    <person id="6" depart="6.00">
        <personTrip from="87499451" to="-124165848" modes="public"/>
    </person>
    <person id="7" depart="7.00">
        <personTrip from="925476001" to="-724104987" modes="public"/>
    </person>
    <person id="8" depart="8.00">
        <personTrip from="-1118564715" to="87504054" modes="public"/>
    </person>
    <person id="9" depart="9.00">
        <personTrip from="-87492940" to="948549693" modes="public"/>
    </person>
    <person id="10" depart="10.00">
        <personTrip from="-1191994922" to="-948549714" modes="public"/>
    </person>
    <person id="11" depart="11.00">
        <personTrip from="-87498322" to="1129324917" modes="public"/>
    </person>
    <person id="12" depart="12.00">
        <personTrip from="-87496896" to="87500495" modes="public"/>
    </person>
    <person id="13" depart="13.00">
        <personTrip from="-87502056" to="-87502661" modes="public"/>
    </person>
    <person id="14" depart="14.00">
        <personTrip from="956110935" to="-87499931" modes="public"/>
    </person>
    <person id="15" depart="15.00">
        <personTrip from="87502392" to="-87506266" modes="public"/>
    </person>
    <person id="16" depart="16.00">
        <personTrip from="-87499398" to="772401339" modes="public"/>
    </person>
    <person id="17" depart="17.00">
        <personTrip from="948536721" to="1192555664" modes="public"/>
    </person>
    <person id="18" depart="18.00">
        <personTrip from="1118970775" to="982092381" modes="public"/>
    </person>
    <person id="19" depart="19.00">
        <personTrip from="-87497557" to="-87496702" modes="public"/>
    </person>
    <person id="20" depart="20.00">
        <personTrip from="1047692338" to="1118540475" modes="public"/>
    </person>
    <person id="21" depart="21.00">
        <personTrip from="87498264" to="87496760" modes="public"/>
    </person>
    <person id="22" depart="22.00">
        <personTrip from="800046745" to="87500958" modes="public"/>
    </person>
    <person id="23" depart="23.00">
        <personTrip from="98878992" to="772853116" modes="public"/>
    </person>
    <person id="24" depart="24.00">
        <personTrip from="87504096" to="835905223" modes="public"/>
    </person>
    <person id="25" depart="25.00">
        <personTrip from="-87508438" to="87498729" modes="public"/>
    </person>
    <person id="26" depart="26.00">
        <personTrip from="87497089" to="1132955166" modes="public"/>
    </person>
    <person id="27" depart="27.00">
        <personTrip from="87502499" to="-1126606519" modes="public"/>
    </person>
    <person id="28" depart="28.00">
        <personTrip from="1194189068" to="901312053" modes="public"/>
    </person>
    <person id="29" depart="29.00">
        <personTrip from="1101891135" to="956110950" modes="public"/>
    </person>
    <person id="30" depart="30.00">
        <personTrip from="87498311" to="-772404507" modes="public"/>
    </person>
    <person id="31" depart="31.00">
        <personTrip from="-1113830518" to="948462018" modes="public"/>
    </person>
    <person id="32" depart="32.00">
        <personTrip from="87499242" to="87509282" modes="public"/>
    </person>
    <person id="33" depart="33.00">
        <personTrip from="-1191187435" to="87493354" modes="public"/>
    </person>
    <person id="34" depart="34.00">
        <personTrip from="-87498176" to="-87500017" modes="public"/>
    </person>
    <person id="35" depart="35.00">
        <personTrip from="-87500884" to="-806115518" modes="public"/>
    </person>
    <person id="36" depart="36.00">
        <personTrip from="87495373" to="1118699527" modes="public"/>
    </person>
    <person id="37" depart="37.00">
        <personTrip from="-799933348" to="87501305" modes="public"/>
    </person>
    <person id="38" depart="38.00">
        <personTrip from="799445550" to="-1000291167" modes="public"/>
    </person>
    <person id="39" depart="39.00">
        <personTrip from="-1143263047" to="1188064623" modes="public"/>
    </person>
    <person id="40" depart="40.00">
        <personTrip from="-724110857" to="1118631131" modes="public"/>
    </person>
    <person id="41" depart="41.00">
        <personTrip from="-87498343" to="-87506382" modes="public"/>
    </person>
    <person id="42" depart="42.00">
        <personTrip from="-87497126" to="-1132933970" modes="public"/>
    </person>
    <person id="43" depart="43.00">
        <personTrip from="-948536713" to="87500751" modes="public"/>
    </person>
    <person id="44" depart="44.00">
        <personTrip from="1118982347" to="851059139" modes="public"/>
    </person>
    <person id="45" depart="45.00">
        <personTrip from="-87502891" to="-1101890912" modes="public"/>
    </person>
    <person id="46" depart="46.00">
        <personTrip from="87505019" to="-87501744" modes="public"/>
    </person>
    <person id="47" depart="47.00">
        <personTrip from="-98890699" to="87494769" modes="public"/>
    </person>
    <person id="48" depart="48.00">
        <personTrip from="1101888722" to="1169402779" modes="public"/>
    </person>
    <person id="49" depart="49.00">
        <personTrip from="115721389" to="-87497565" modes="public"/>
    </person>
    <person id="50" depart="50.00">
        <personTrip from="-87504141" to="87493826" modes="public"/>
    </person>
    <person id="51" depart="51.00">
        <personTrip from="-1191123512" to="1165935293" modes="public"/>
    </person>
    <person id="52" depart="52.00">
        <personTrip from="-87506359" to="1047818029" modes="public"/>
    </person>
    <person id="53" depart="53.00">
        <personTrip from="1119082146" to="-87502058" modes="public"/>
    </person>
    <person id="54" depart="54.00">
        <personTrip from="87502618" to="-1118146954" modes="public"/>
    </person>
    <person id="55" depart="55.00">
        <personTrip from="-87500698" to="87496364" modes="public"/>
    </person>
    <person id="56" depart="56.00">
        <personTrip from="-87493112" to="1191135252" modes="public"/>
    </person>
    <person id="57" depart="57.00">
        <personTrip from="1192565949" to="-115721309" modes="public"/>
    </person>
    <person id="58" depart="58.00">
        <personTrip from="-87495873" to="-87506872" modes="public"/>
    </person>
    <person id="59" depart="59.00">
        <personTrip from="1118358518" to="87506754" modes="public"/>
    </person>
    <person id="60" depart="60.00">
        <personTrip from="-87505715" to="87496134" modes="public"/>
    </person>
    <person id="61" depart="61.00">
        <personTrip from="-87494508" to="901135095" modes="public"/>
    </person>
    <person id="62" depart="62.00">
        <personTrip from="-1119271081" to="-87495984" modes="public"/>
    </person>
    <person id="63" depart="63.00">
        <personTrip from="-1119024544" to="-87507232" modes="public"/>
    </person>
    <person id="64" depart="64.00">
        <personTrip from="901136008" to="762039645" modes="public"/>
    </person>
    <person id="65" depart="65.00">
        <personTrip from="-772871042" to="87504177" modes="public"/>
    </person>
    <person id="66" depart="66.00">
        <personTrip from="-816676601" to="-806963152" modes="public"/>
    </person>
    <person id="67" depart="67.00">
        <personTrip from="-1192419636" to="87501846" modes="public"/>
    </person>
    <person id="68" depart="68.00">
        <personTrip from="724068234" to="-87492994" modes="public"/>
    </person>
    <person id="69" depart="69.00">
        <personTrip from="87507936" to="-87509245" modes="public"/>
    </person>
    <person id="70" depart="70.00">
        <personTrip from="1101889459" to="-948462041" modes="public"/>
    </person>
    <person id="71" depart="71.00">
        <personTrip from="837689378" to="-115724206" modes="public"/>
    </person>
    <person id="72" depart="72.00">
        <personTrip from="1119265332" to="821439806" modes="public"/>
    </person>
    <person id="73" depart="73.00">
        <personTrip from="87503902" to="-1169914747" modes="public"/>
    </person>
    <person id="74" depart="74.00">
        <personTrip from="-87500205" to="-87496591" modes="public"/>
    </person>
    <person id="75" depart="75.00">
        <personTrip from="-87502734" to="-87497252" modes="public"/>
    </person>
    <person id="76" depart="76.00">
        <personTrip from="87494138" to="-799629873" modes="public"/>
    </person>
    <person id="77" depart="77.00">
        <personTrip from="1132954239" to="-1118620984" modes="public"/>
    </person>
    <person id="78" depart="78.00">
        <personTrip from="-1118620974" to="-87509579" modes="public"/>
    </person>
    <person id="79" depart="79.00">
        <personTrip from="-87495224" to="925483490" modes="public"/>
    </person>
    <person id="80" depart="80.00">
        <personTrip from="-948488530" to="87497420" modes="public"/>
    </person>
    <person id="81" depart="81.00">
        <personTrip from="1144659277" to="87503298" modes="public"/>
    </person>
    <person id="82" depart="82.00">
        <personTrip from="87505727" to="-87502783" modes="public"/>
    </person>
    <person id="83" depart="83.00">
        <personTrip from="-1196001290" to="-948549866" modes="public"/>
    </person>
    <person id="84" depart="84.00">
        <personTrip from="-737866523" to="1143258235" modes="public"/>
    </person>
    <person id="85" depart="85.00">
        <personTrip from="87504504" to="772359321" modes="public"/>
    </person>
    <person id="86" depart="86.00">
        <personTrip from="87499132" to="-1192783416" modes="public"/>
    </person>
    <person id="87" depart="87.00">
        <personTrip from="-87498583" to="-87498211" modes="public"/>
    </person>
    <person id="88" depart="88.00">
        <personTrip from="948462000" to="-115721740" modes="public"/>
    </person>
    <person id="89" depart="89.00">
        <personTrip from="868851571" to="-87506320" modes="public"/>
    </person>
    <person id="90" depart="90.00">
        <personTrip from="87507388" to="87502575" modes="public"/>
    </person>
    <person id="91" depart="91.00">
        <personTrip from="1101890909" to="1058745736" modes="public"/>
    </person>
    <person id="92" depart="92.00">
        <personTrip from="1118435278" to="1198737207" modes="public"/>
    </person>
    <person id="93" depart="93.00">
        <personTrip from="1169456729" to="87493008" modes="public"/>
    </person>
    <person id="94" depart="94.00">
        <personTrip from="-87501715" to="87507087" modes="public"/>
    </person>
    <person id="95" depart="95.00">
        <personTrip from="87508256#1" to="799482674" modes="public"/>
    </person>
    <person id="96" depart="96.00">
        <personTrip from="1118601285" to="-1192401336" modes="public"/>
    </person>
    <person id="97" depart="97.00">
        <personTrip from="87494731" to="-722800282" modes="public"/>
    </person>
    <person id="98" depart="98.00">
        <personTrip from="901139645" to="87497298" modes="public"/>
    </person>
    <person id="99" depart="99.00">
        <personTrip from="-124170375" to="868851570" modes="public"/>
    </person>
    <person id="100" depart="100.00">
        <personTrip from="1023043627" to="87500435" modes="public"/>
    </person>
    <person id="101" depart="101.00">
        <personTrip from="1105192280" to="98881806" modes="public"/>
    </person>
    <person id="102" depart="102.00">
        <personTrip from="-87507975" to="901134795" modes="public"/>
    </person>
    <person id="103" depart="103.00">
        <personTrip from="87501528" to="772909573" modes="public"/>
    </person>
    <person id="104" depart="104.00">
        <personTrip from="87497193" to="-87499522" modes="public"/>
    </person>
    <person id="105" depart="105.00">
        <personTrip from="87509734" to="-990000085" modes="public"/>
    </person>
    <person id="106" depart="106.00">
        <personTrip from="837700964" to="87501264" modes="public"/>
    </person>
    <person id="107" depart="107.00">
        <personTrip from="-1193183801" to="-1101890632" modes="public"/>
    </person>
    <person id="108" depart="108.00">
        <personTrip from="868849315" to="-1118454900" modes="public"/>
    </person>
    <person id="109" depart="109.00">
        <personTrip from="87498844" to="-929367374" modes="public"/>
    </person>
    <person id="110" depart="110.00">
        <personTrip from="-87494265" to="1074444010" modes="public"/>
    </person>
    <person id="111" depart="111.00">
        <personTrip from="-87496219" to="115721748" modes="public"/>
    </person>
    <person id="112" depart="112.00">
        <personTrip from="1126606319" to="87503227" modes="public"/>
    </person>
    <person id="113" depart="113.00">
        <personTrip from="-1195452727" to="-1143244950" modes="public"/>
    </person>
    <person id="114" depart="114.00">
        <personTrip from="948461643" to="-87497088" modes="public"/>
    </person>
    <person id="115" depart="115.00">
        <personTrip from="1126606519" to="-87502744" modes="public"/>
    </person>
    <person id="116" depart="116.00">
        <personTrip from="87496708" to="-87502848" modes="public"/>
    </person>
    <person id="117" depart="117.00">
        <personTrip from="1118487982" to="-948462074" modes="public"/>
    </person>
    <person id="118" depart="118.00">
        <personTrip from="-772407318" to="-845559633" modes="public"/>
    </person>
    <person id="119" depart="119.00">
        <personTrip from="772393330" to="-925483470" modes="public"/>
    </person>
    <person id="120" depart="120.00">
        <personTrip from="87502499" to="-87501727" modes="public"/>
    </person>
    <person id="121" depart="121.00">
        <personTrip from="773007647" to="87504692" modes="public"/>
    </person>
    <person id="122" depart="122.00">
        <personTrip from="-87501860" to="-1069089022" modes="public"/>
    </person>
    <person id="123" depart="123.00">
        <personTrip from="87502490" to="-87501276" modes="public"/>
    </person>
    <person id="124" depart="124.00">
        <personTrip from="-87509153" to="87499480" modes="public"/>
    </person>
    <person id="125" depart="125.00">
        <personTrip from="-27642299" to="-948549764" modes="public"/>
    </person>
    <person id="126" depart="126.00">
        <personTrip from="-1198801140" to="-87503140" modes="public"/>
    </person>
    <person id="127" depart="127.00">
        <personTrip from="-901134955" to="-87496140" modes="public"/>
    </person>
    <person id="128" depart="128.00">
        <personTrip from="87508902" to="1191162510" modes="public"/>
    </person>
    <person id="129" depart="129.00">
        <personTrip from="1191165163" to="-772089083" modes="public"/>
    </person>
    <person id="130" depart="130.00">
        <personTrip from="-948486803" to="87508468" modes="public"/>
    </person>
    <person id="131" depart="131.00">
        <personTrip from="87500385" to="-772912057" modes="public"/>
    </person>
    <person id="132" depart="132.00">
        <personTrip from="-115721214" to="-901135110" modes="public"/>
    </person>
    <person id="133" depart="133.00">
        <personTrip from="948485973" to="1088762535" modes="public"/>
    </person>
    <person id="134" depart="134.00">
        <personTrip from="-772963600" to="1118584114" modes="public"/>
    </person>
    <person id="135" depart="135.00">
        <personTrip from="-772976222" to="-1118445838" modes="public"/>
    </person>
    <person id="136" depart="136.00">
        <personTrip from="-115721771" to="-1000511313" modes="public"/>
    </person>
    <person id="137" depart="137.00">
        <personTrip from="-87494832" to="-87502579" modes="public"/>
    </person>
    <person id="138" depart="138.00">
        <personTrip from="-87506091" to="948549753" modes="public"/>
    </person>
    <person id="139" depart="139.00">
        <personTrip from="-901135093" to="87496963" modes="public"/>
    </person>
    <person id="140" depart="140.00">
        <personTrip from="772865418" to="-87504461" modes="public"/>
    </person>
    <person id="141" depart="141.00">
        <personTrip from="-87507441" to="-1196001290" modes="public"/>
    </person>
    <person id="142" depart="142.00">
        <personTrip from="-948537909" to="-87499382" modes="public"/>
    </person>
    <person id="143" depart="143.00">
        <personTrip from="1191171708" to="948527071" modes="public"/>
    </person>
    <person id="144" depart="144.00">
        <personTrip from="-837377342" to="87496434" modes="public"/>
    </person>
    <person id="145" depart="145.00">
        <personTrip from="-87498077" to="-762055807" modes="public"/>
    </person>
    <person id="146" depart="146.00">
        <personTrip from="-87497760" to="-87499676" modes="public"/>
    </person>
    <person id="147" depart="147.00">
        <personTrip from="-1191251492" to="-87502919" modes="public"/>
    </person>
    <person id="148" depart="148.00">
        <personTrip from="-948538198" to="-925453129" modes="public"/>
    </person>
    <person id="149" depart="149.00">
        <personTrip from="1121250554" to="-87498446" modes="public"/>
    </person>
    <person id="150" depart="150.00">
        <personTrip from="87496291" to="-87501983" modes="public"/>
    </person>
    <person id="151" depart="151.00">
        <personTrip from="-87496158" to="-784646340" modes="public"/>
    </person>
    <person id="152" depart="152.00">
        <personTrip from="87506983" to="87498718" modes="public"/>
    </person>
    <person id="153" depart="153.00">
        <personTrip from="124165510" to="-948485981" modes="public"/>
    </person>
    <person id="154" depart="154.00">
        <personTrip from="1133034342" to="1118652247" modes="public"/>
    </person>
    <person id="155" depart="155.00">
        <personTrip from="-1192483308" to="-948488500" modes="public"/>
    </person>
    <person id="156" depart="156.00">
        <personTrip from="-1122700323" to="115721748" modes="public"/>
    </person>
    <person id="157" depart="157.00">
        <personTrip from="932124396" to="-87499248" modes="public"/>
    </person>
    <person id="158" depart="158.00">
        <personTrip from="-1192409818" to="87499890" modes="public"/>
    </person>
    <person id="159" depart="159.00">
        <personTrip from="87501827" to="1105192296" modes="public"/>
    </person>
    <person id="160" depart="160.00">
        <personTrip from="87493690" to="87495309" modes="public"/>
    </person>
    <person id="161" depart="161.00">
        <personTrip from="-87505651" to="-124179949" modes="public"/>
    </person>
    <person id="162" depart="162.00">
        <personTrip from="-845560078" to="87498704" modes="public"/>
    </person>
    <person id="163" depart="163.00">
        <personTrip from="1198738589" to="-1143263043" modes="public"/>
    </person>
    <person id="164" depart="164.00">
        <personTrip from="87493044" to="-772968845" modes="public"/>
    </person>
    <person id="165" depart="165.00">
        <personTrip from="1131945308" to="98890708" modes="public"/>
    </person>
    <person id="166" depart="166.00">
        <personTrip from="-901192326" to="-901132768" modes="public"/>
    </person>
    <person id="167" depart="167.00">
        <personTrip from="773327765" to="1129262971" modes="public"/>
    </person>
    <person id="168" depart="168.00">
        <personTrip from="-87498555" to="-901134416" modes="public"/>
    </person>
    <person id="169" depart="169.00">
        <personTrip from="948461650" to="-87499628" modes="public"/>
    </person>
    <person id="170" depart="170.00">
        <personTrip from="901133714" to="1089109289" modes="public"/>
    </person>
    <person id="171" depart="171.00">
        <personTrip from="87497482" to="-87509735" modes="public"/>
    </person>
    <person id="172" depart="172.00">
        <personTrip from="87503831" to="87493827" modes="public"/>
    </person>
    <person id="173" depart="173.00">
        <personTrip from="87495023" to="-1118631124" modes="public"/>
    </person>
    <person id="174" depart="174.00">
        <personTrip from="87501826" to="-948549672" modes="public"/>
    </person>
    <person id="175" depart="175.00">
        <personTrip from="-1118421093" to="1118982348" modes="public"/>
    </person>
    <person id="176" depart="176.00">
        <personTrip from="1118670601" to="-1034849359" modes="public"/>
    </person>
    <person id="177" depart="177.00">
        <personTrip from="-87499297" to="-1169393822" modes="public"/>
    </person>
    <person id="178" depart="178.00">
        <personTrip from="87501627" to="-87502420" modes="public"/>
    </person>
    <person id="179" depart="179.00">
        <personTrip from="87508921" to="-1118942270" modes="public"/>
    </person>
    <person id="180" depart="180.00">
        <personTrip from="87499880" to="-845560081" modes="public"/>
    </person>
    <person id="181" depart="181.00">
        <personTrip from="-1132933977" to="87502570" modes="public"/>
    </person>
    <person id="182" depart="182.00">
        <personTrip from="-772875179" to="-87501611" modes="public"/>
    </person>
    <person id="183" depart="183.00">
        <personTrip from="799445550" to="-1118565882" modes="public"/>
    </person>
    <person id="184" depart="184.00">
        <personTrip from="-1191177015" to="87501018" modes="public"/>
    </person>
    <person id="185" depart="185.00">
        <personTrip from="1118126234" to="-1143258260" modes="public"/>
    </person>
    <person id="186" depart="186.00">
        <personTrip from="-932269682" to="-87505094" modes="public"/>
    </person>
    <person id="187" depart="187.00">
        <personTrip from="1133030807" to="772341830" modes="public"/>
    </person>
    <person id="188" depart="188.00">
        <personTrip from="-750128144" to="-989259915" modes="public"/>
    </person>
    <person id="189" depart="189.00">
        <personTrip from="1192856249" to="87509414" modes="public"/>
    </person>
    <person id="190" depart="190.00">
        <personTrip from="-1191185541" to="1171433821" modes="public"/>
    </person>
    <person id="191" depart="191.00">
        <personTrip from="-1192482976" to="-1119432313" modes="public"/>
    </person>
    <person id="192" depart="192.00">
        <personTrip from="-87498301" to="929867160" modes="public"/>
    </person>
    <person id="193" depart="193.00">
        <personTrip from="-87503387" to="87498707" modes="public"/>
    </person>
    <person id="194" depart="194.00">
        <personTrip from="87498810" to="-847771769" modes="public"/>
    </person>
    <person id="195" depart="195.00">
        <personTrip from="87502520" to="948527128" modes="public"/>
    </person>
    <person id="196" depart="196.00">
        <personTrip from="-87502745" to="-87505790" modes="public"/>
    </person>
    <person id="197" depart="197.00">
        <personTrip from="-948549808" to="1193596083" modes="public"/>
    </person>
    <person id="198" depart="198.00">
        <personTrip from="-1191187381" to="87504082" modes="public"/>
    </person>
    <person id="199" depart="199.00">
        <personTrip from="-87498027" to="87503124" modes="public"/>
    </person>
    <person id="200" depart="200.00">
        <personTrip from="-87494682" to="-948485685" modes="public"/>
    </person>
    <person id="201" depart="201.00">
        <personTrip from="-948538212" to="-914083972" modes="public"/>
    </person>
    <person id="202" depart="202.00">
        <personTrip from="87505547" to="87497633" modes="public"/>
    </person>
    <person id="203" depart="203.00">
        <personTrip from="87494713" to="1133028044" modes="public"/>
    </person>
    <person id="204" depart="204.00">
        <personTrip from="-87496912" to="-124165536" modes="public"/>
    </person>
    <person id="205" depart="205.00">
        <personTrip from="98881708" to="-87503353" modes="public"/>
    </person>
    <person id="206" depart="206.00">
        <personTrip from="-1119271078" to="-87500882" modes="public"/>
    </person>
    <person id="207" depart="207.00">
        <personTrip from="-87498557" to="-821439804" modes="public"/>
    </person>
    <person id="208" depart="208.00">
        <personTrip from="87497135" to="-87492893" modes="public"/>
    </person>
    <person id="209" depart="209.00">
        <personTrip from="925476000" to="-87497827" modes="public"/>
    </person>
    <person id="210" depart="210.00">
        <personTrip from="98881809" to="1169393299" modes="public"/>
    </person>
    <person id="211" depart="211.00">
        <personTrip from="98881902" to="1118553094" modes="public"/>
    </person>
    <person id="212" depart="212.00">
        <personTrip from="-87501424" to="-799480743" modes="public"/>
    </person>
    <person id="213" depart="213.00">
        <personTrip from="87497908" to="799934173" modes="public"/>
    </person>
    <person id="214" depart="214.00">
        <personTrip from="-87503076" to="948461777" modes="public"/>
    </person>
    <person id="215" depart="215.00">
        <personTrip from="-87494162" to="-87508519" modes="public"/>
    </person>
    <person id="216" depart="216.00">
        <personTrip from="-87496296" to="1118660040" modes="public"/>
    </person>
    <person id="217" depart="217.00">
        <personTrip from="87502213" to="835905212" modes="public"/>
    </person>
    <person id="218" depart="218.00">
        <personTrip from="-799875868" to="-87507340" modes="public"/>
    </person>
    <person id="219" depart="219.00">
        <personTrip from="-87503377" to="-87500481" modes="public"/>
    </person>
    <person id="220" depart="220.00">
        <personTrip from="1118476325" to="-87497891" modes="public"/>
    </person>
    <person id="221" depart="221.00">
        <personTrip from="87504244" to="87498245" modes="public"/>
    </person>
    <person id="222" depart="222.00">
        <personTrip from="-948527117" to="1118628448" modes="public"/>
    </person>
    <person id="223" depart="223.00">
        <personTrip from="87504617" to="87503324" modes="public"/>
    </person>
    <person id="224" depart="224.00">
        <personTrip from="948538182" to="-87506883" modes="public"/>
    </person>
    <person id="225" depart="225.00">
        <personTrip from="772395750" to="-87499446" modes="public"/>
    </person>
    <person id="226" depart="226.00">
        <personTrip from="87509170" to="-87507250" modes="public"/>
    </person>
    <person id="227" depart="227.00">
        <personTrip from="722800764" to="-925472683" modes="public"/>
    </person>
    <person id="228" depart="228.00">
        <personTrip from="1118366766" to="819570732" modes="public"/>
    </person>
    <person id="229" depart="229.00">
        <personTrip from="799632332" to="-1118563328" modes="public"/>
    </person>
    <person id="230" depart="230.00">
        <personTrip from="-1191185540" to="87502056" modes="public"/>
    </person>
    <person id="231" depart="231.00">
        <personTrip from="772976244" to="-87505057" modes="public"/>
    </person>
    <person id="232" depart="232.00">
        <personTrip from="-87501283" to="87504915" modes="public"/>
    </person>
    <person id="233" depart="233.00">
        <personTrip from="773007647" to="-1192873125" modes="public"/>
    </person>
    <person id="234" depart="234.00">
        <personTrip from="115721749" to="-1198741592" modes="public"/>
    </person>
    <person id="235" depart="235.00">
        <personTrip from="-87499465" to="925453128" modes="public"/>
    </person>
    <person id="236" depart="236.00">
        <personTrip from="-124158510" to="87499948" modes="public"/>
    </person>
    <person id="237" depart="237.00">
        <personTrip from="1118277878" to="1119132354" modes="public"/>
    </person>
    <person id="238" depart="238.00">
        <personTrip from="-1118111115" to="-87505171" modes="public"/>
    </person>
    <person id="239" depart="239.00">
        <personTrip from="1118647502" to="783672855" modes="public"/>
    </person>
    <person id="240" depart="240.00">
        <personTrip from="-1191831098" to="87500707" modes="public"/>
    </person>
    <person id="241" depart="241.00">
        <personTrip from="-87503063" to="1191171706" modes="public"/>
    </person>
    <person id="242" depart="242.00">
        <personTrip from="-847772372" to="772817069" modes="public"/>
    </person>
    <person id="243" depart="243.00">
        <personTrip from="87504911" to="87502574" modes="public"/>
    </person>
    <person id="244" depart="244.00">
        <personTrip from="-87507295" to="1192013941" modes="public"/>
    </person>
    <person id="245" depart="245.00">